 Abaqus/Standard 6.14-4                  DATE 15-Jun-2023 TIME 13:03:58
 SUMMARY OF JOB INFORMATION:
 STEP  INC ATT SEVERE EQUIL TOTAL  TOTAL      STEP       INC OF       DOF    IF
               DISCON ITERS ITERS  TIME/    TIME/LPF    TIME/LPF    MONITOR RIKS
               ITERS               FREQ
   1     1   1     0     1     1  3.00e+09   3.00e+09   3.000e+09 
   1     2   1     0     1     1  6.00e+09   6.00e+09   3.000e+09 
   1     3   1     0     1     1  9.00e+09   9.00e+09   3.000e+09 
   1     4   1     0     1     1  1.50e+10   1.50e+10   6.000e+09 
   1     5   1     0     1     1  2.70e+10   2.70e+10   1.200e+10 
   1     6   1     0     1     1  5.10e+10   5.10e+10   2.400e+10 
   1     7   1     0     1     1  9.90e+10   9.90e+10   4.800e+10 
   1     8   1     0     1     1  1.95e+11   1.95e+11   9.600e+10 
   1     9   1     0     1     1  3.87e+11   3.87e+11   1.920e+11 
   1    10   1     0     1     1  7.71e+11   7.71e+11   3.840e+11 
   1    11   1     0     1     1  1.54e+12   1.54e+12   7.680e+11 
   1    12   1     0     2     2  3.08e+12   3.08e+12   1.536e+12 
   1    13   1     0     2     2  5.38e+12   5.38e+12   2.304e+12 
   1    14   1     0     2     2  8.84e+12   8.84e+12   3.456e+12 
   1    15   1     0     2     2  1.40e+13   1.40e+13   5.184e+12 
   1    16   1     0     2     2  2.18e+13   2.18e+13   7.776e+12 
   1    17   1     0     2     2  3.35e+13   3.35e+13   1.166e+13 
   1    18   1     0     2     2  5.10e+13   5.10e+13   1.750e+13 
   1    19   1     0     2     2  7.72e+13   7.72e+13   2.624e+13 
   1    20   1     0     2     2  1.17e+14   1.17e+14   3.937e+13 
   1    21   1     0     2     2  1.76e+14   1.76e+14   5.905e+13 
   1    22   1     0     2     2  2.64e+14   2.64e+14   8.857e+13 
   1    23   1     0     2     2  3.97e+14   3.97e+14   1.329e+14 
   1    24   1     0     2     2  5.96e+14   5.96e+14   1.993e+14 
   1    25   1     0     2     2  8.95e+14   8.95e+14   2.989e+14 
   1    26   1     0     2     2  1.34e+15   1.34e+15   4.484e+14 
   1    27   1     0     1     1  1.35e+15   1.35e+15   6.323e+12 
   2     1   1     0     1     1  1.35e+15   3.00e+06   3.000e+06 
   2     2   1     0     1     1  1.35e+15   6.00e+06   3.000e+06 
   2     3   1     0     1     1  1.35e+15   9.00e+06   3.000e+06 
   2     4   1     0     1     1  1.35e+15   1.50e+07   6.000e+06 
   2     5   1     0     1     1  1.35e+15   2.70e+07   1.200e+07 
   2     6   1     0     1     1  1.35e+15   5.10e+07   2.400e+07 
   2     7   1     0     1     1  1.35e+15   9.90e+07   4.800e+07 
   2     8   1     0     1     1  1.35e+15   1.95e+08   9.600e+07 
   2     9   1     0     1     1  1.35e+15   3.87e+08   1.920e+08 
   2    10   1     0     1     1  1.35e+15   7.71e+08   3.840e+08 
   2    11   1     0     1     1  1.35e+15   1.54e+09   7.680e+08 
   2    12   1     0     1     1  1.35e+15   3.08e+09   1.536e+09 
   2    13   1     0     1     1  1.35e+15   6.15e+09   3.072e+09 
   2    14   1     0     1     1  1.35e+15   1.23e+10   6.144e+09 
   2    15   1     0     1     1  1.35e+15   2.46e+10   1.229e+10 
   2    16   1     0     1     1  1.35e+15   4.92e+10   2.458e+10 
   2    17   1     0     1     1  1.35e+15   9.83e+10   4.915e+10 
   2    18   1     0     1     1  1.35e+15   1.97e+11   9.830e+10 
   2    19   1     0     2     2  1.35e+15   3.93e+11   1.966e+11 
   2    20   1     0     2     2  1.35e+15   6.88e+11   2.949e+11 
   2    21   1     0     2     2  1.35e+15   1.13e+12   4.424e+11 
   2    22   1     0     2     2  1.35e+15   1.79e+12   6.636e+11 
   2    23   1     0     2     2  1.35e+15   2.79e+12   9.953e+11 
   2    24   1     0     2     2  1.35e+15   4.28e+12   1.493e+12 
   2    25   1     0     2     2  1.36e+15   6.52e+12   2.239e+12 
   2    26   1     0     2     2  1.36e+15   9.88e+12   3.359e+12 
   2    27   1     0     2     2  1.36e+15   1.49e+13   5.039e+12 
   2    28   1     0     2     2  1.37e+15   2.25e+13   7.558e+12 
   2    29   1     0     2     2  1.38e+15   3.38e+13   1.134e+13 
   2    30   1     0     2     2  1.40e+15   5.08e+13   1.701e+13 
   2    31   1     0     2     2  1.43e+15   7.63e+13   2.551e+13 
   2    32   1     0     2     2  1.46e+15   1.15e+14   3.826e+13 
   2    33   1     0     2     2  1.48e+15   1.35e+14   2.041e+13 
   3     1   1     0     1     1  1.49e+15   3.00e+06   3.000e+06 
   3     2   1     0     1     1  1.49e+15   6.00e+06   3.000e+06 
   3     3   1     0     1     1  1.49e+15   9.00e+06   3.000e+06 
   3     4   1     0     1     1  1.49e+15   1.50e+07   6.000e+06 
   3     5   1     0     1     1  1.49e+15   2.70e+07   1.200e+07 
   3     6   1     0     1     1  1.49e+15   5.10e+07   2.400e+07 
   3     7   1     0     1     1  1.49e+15   9.90e+07   4.800e+07 
   3     8   1     0     1     1  1.49e+15   1.95e+08   9.600e+07 
   3     9   1     0     1     1  1.49e+15   3.87e+08   1.920e+08 
   3    10   1     0     1     1  1.49e+15   7.71e+08   3.840e+08 
   3    11   1     0     1     1  1.49e+15   1.54e+09   7.680e+08 
   3    12   1     0     1     1  1.49e+15   3.08e+09   1.536e+09 
   3    13   1     0     1     1  1.49e+15   6.15e+09   3.072e+09 
   3    14   1     0     1     1  1.49e+15   1.23e+10   6.144e+09 
   3    15   1     0     1     1  1.49e+15   2.46e+10   1.229e+10 
   3    16   1     0     1     1  1.49e+15   4.92e+10   2.458e+10 
   3    17   1     0     1     1  1.49e+15   9.83e+10   4.915e+10 
   3    18   1     0     1     1  1.49e+15   1.97e+11   9.830e+10 
   3    19   1     0     1     1  1.49e+15   3.93e+11   1.966e+11 
   3    20   1     0     2     2  1.49e+15   7.86e+11   3.932e+11 
   3    21   1     0     2     2  1.49e+15   1.38e+12   5.898e+11 
   3    22   1     0     2     2  1.49e+15   2.26e+12   8.847e+11 
   3    23   1     0     2     2  1.49e+15   3.59e+12   1.327e+12 
   3    24   1     0     2     2  1.49e+15   5.58e+12   1.991e+12 
   3    25   1     0     2     2  1.49e+15   8.56e+12   2.986e+12 
   3    26   1     0     2     2  1.50e+15   1.30e+13   4.479e+12 
   3    27   1     0     2     2  1.50e+15   1.98e+13   6.718e+12 
   3    28   1     0     2     2  1.51e+15   2.98e+13   1.008e+13 
   3    29   1     0     2     2  1.53e+15   4.50e+13   1.512e+13 
   3    30   1     0     2     2  1.55e+15   6.76e+13   2.267e+13 
   3    31   1     0     2     2  1.59e+15   1.02e+14   3.401e+13 
   3    32   1     0     2     2  1.62e+15   1.35e+14   3.336e+13 
   4     1   1     0     1     1  1.62e+15   3.00e+06   3.000e+06 
   4     2   1     0     1     1  1.62e+15   6.00e+06   3.000e+06 
   4     3   1     0     1     1  1.62e+15   9.00e+06   3.000e+06 
   4     4   1     0     1     1  1.62e+15   1.50e+07   6.000e+06 
   4     5   1     0     1     1  1.62e+15   2.70e+07   1.200e+07 
   4     6   1     0     1     1  1.62e+15   5.10e+07   2.400e+07 
   4     7   1     0     1     1  1.62e+15   9.90e+07   4.800e+07 
   4     8   1     0     1     1  1.62e+15   1.95e+08   9.600e+07 
   4     9   1     0     1     1  1.62e+15   3.87e+08   1.920e+08 
   4    10   1     0     1     1  1.62e+15   7.71e+08   3.840e+08 
   4    11   1     0     1     1  1.62e+15   1.54e+09   7.680e+08 
   4    12   1     0     1     1  1.62e+15   3.08e+09   1.536e+09 
   4    13   1     0     1     1  1.62e+15   6.15e+09   3.072e+09 
   4    14   1     0     1     1  1.62e+15   1.23e+10   6.144e+09 
   4    15   1     0     1     1  1.62e+15   2.46e+10   1.229e+10 
   4    16   1     0     1     1  1.62e+15   4.92e+10   2.458e+10 
   4    17   1     0     1     1  1.62e+15   9.83e+10   4.915e+10 
   4    18   1     0     1     1  1.62e+15   1.97e+11   9.830e+10 
   4    19   1     0     1     1  1.62e+15   3.93e+11   1.966e+11 
   4    20   1     0     1     1  1.62e+15   7.86e+11   3.932e+11 
   4    21   1     0     2     2  1.62e+15   1.57e+12   7.864e+11 
   4    22   1     0     2     2  1.62e+15   2.75e+12   1.180e+12 
   4    23   1     0     2     2  1.62e+15   4.52e+12   1.769e+12 
   4    24   1     0     2     2  1.63e+15   7.18e+12   2.654e+12 
   4    25   1     0     2     2  1.63e+15   1.12e+13   3.981e+12 
   4    26   1     0     2     2  1.64e+15   1.71e+13   5.972e+12 
   4    27   1     0     2     2  1.65e+15   2.61e+13   8.958e+12 
   4    28   1     0     2     2  1.66e+15   3.95e+13   1.344e+13 
   4    29   1     0     2     2  1.68e+15   5.97e+13   2.016e+13 
   4    30   1     0     2     2  1.71e+15   8.99e+13   3.023e+13 
   4    31   1     0     2     2  1.76e+15   1.35e+14   4.509e+13 
                          
 THE ANALYSIS HAS COMPLETED SUCCESSFULLY
