1

   Abaqus 6.14-4                                  Date 11-Jun-2023   Time 23:12:41
   For use at DELFT UNIVERSITY OF TECHNOLOGY under license from Dassault Systemes or its subsidiary.



                         The Abaqus Software is a product of:

                           Dassault Systemes SIMULIA Corp.
                           1301 Atwood Avenue, Suite 101W
                              Johnston, RI 02919, USA
 


                   Available for internal use at DELFT UNIVERSITY OF TECHNOLOGY. 
                   The Abaqus Online Support System is accessible
                   through the "My Support" section of the SIMULIA
                   Home Page at http://www.simulia.com.

                   Support policies for academic licenses are described
                   on the SIMULIA web site at
                   http://www.3ds.com/products/simulia/academics/
 
                          On machine hipparchos 
                          you are authorized to run
                          Abaqus/Standard until 30-Sep-2023

                          Your site id is: 200000000057591 


 
                    For assistance or any other information you may
                    obtain contact information for your local office
                    from the world wide web at:

                      http://www.3ds.com/products/simulia/locations/

 
                * * * * * * * * * * * * * * * * * * * * * * * * * * * * * * 
                *                                                         * 
                *                   *****************                     * 
                *                   *  N O T I C E  *                     * 
                *                   *****************                     * 
                *                                                         * 
                *                                                         * 
                *                    Abaqus 6.14-4                        * 
                *                                                         * 
                *          BUILD ID: 2015_06_11-22.39.29 135079           * 
                *                                                         * 
                *                                                         * 
                *  Please make sure you are using release 6.14 manuals    * 
                *  plus the notes accompanying this release.              * 
                *                                                         * 
                *                                                         * 
                *                                                         * 
                *                                                         * 
                *                                                         * 
                *   This program may not be used for commercial purposes  * 
                *           without payment of a commercial fee.          * 
                *                                                         * 
                * * * * * * * * * * * * * * * * * * * * * * * * * * * * * * 


 



     PROCESSING PART, INSTANCE, AND ASSEMBLY INFORMATION
   *******************************************************


     END PROCESSING PART, INSTANCE, AND ASSEMBLY INFORMATION
   ***********************************************************




     OPTIONS BEING PROCESSED
   ***************************


  *HEADING
          3D HALFSPACE, 97x97x10 elements, 73x73 load elements of 80 km                                                                                                                                                                                                   
  *NODE,NSET=N1
  *NODE,NSET=N13
  *NODE,NSET=N86
  *NODE,NSET=N98
  *NODE,NSET=N1201
  *NODE,NSET=N1213
  *NODE,NSET=N1286
  *NODE,NSET=N1298
  *NODE,NSET=N8501
  *NODE,NSET=N8513
  *NODE,NSET=N8586
  *NODE,NSET=N8598
  *NODE,NSET=N9701
  *NODE,NSET=N9713
  *NODE,NSET=N9786
  *NODE,NSET=N9798
  *NFILL,BIAS=1.4550,NSET=LX1
  *NFILL,BIAS=1.4550,NSET=LX2
  *NFILL,BIAS=1.4550,NSET=LX3
  *NFILL,BIAS=1.4550,NSET=LX4
  *NGEN,NSET=CX1
  *NGEN,NSET=CX2
  *NGEN,NSET=CX3
  *NGEN,NSET=CX4
  *NFILL,BIAS=0.6873,NSET=UX1
  *NFILL,BIAS=0.6873,NSET=UX2
  *NFILL,BIAS=0.6873,NSET=UX3
  *NFILL,BIAS=0.6873,NSET=UX4
  *NSET,NSET=X1
  *NSET,NSET=X2
  *NSET,NSET=X3
  *NSET,NSET=X4
  *NFILL,BIAS=1.4550,NSET=LY
  *NFILL,NSET=CY
  *NFILL,BIAS=0.6873,NSET=UY
  *NSET,NSET=UZPLANE
  *NCOPY,OLD SET=UZPLANE,CHANGE NUMBER=10000,SHIFT,NEW SET=Z1
  *NCOPY,OLD SET=UZPLANE,CHANGE NUMBER=20000,SHIFT,NEW SET=Z2
  *NCOPY,OLD SET=UZPLANE,CHANGE NUMBER=30000,SHIFT,NEW SET=Z3
  *NCOPY,OLD SET=UZPLANE,CHANGE NUMBER=40000,SHIFT,NEW SET=Z4
  *NCOPY,OLD SET=UZPLANE,CHANGE NUMBER=50000,SHIFT,NEW SET=Z5
  *NCOPY,OLD SET=UZPLANE,CHANGE NUMBER=60000,SHIFT,NEW SET=Z6
  *NCOPY,OLD SET=UZPLANE,CHANGE NUMBER=70000,SHIFT,NEW SET=Z7
  *NCOPY,OLD SET=UZPLANE,CHANGE NUMBER=80000,SHIFT,NEW SET=Z8
  *NCOPY,OLD SET=UZPLANE,CHANGE NUMBER=90000,SHIFT,NEW SET=Z9
  *NCOPY,OLD SET=UZPLANE,CHANGE NUMBER=100000,SHIFT,NEW SET=Z10
  *NSET,NSET=XNEG,GENERATE
  *NSET,NSET=XPOS,GENERATE
  *NSET,NSET=YNEG,GENERATE
  *NSET,NSET=YPOS,GENERATE
  *ELEMENT,TYPE=C3D8H
  *ELGEN
  *INCLUDE, INPUT=surface.el

  *** INPUT DATA IS READ FROM FILE surface.el                                                                                                                                                                                                                                                     

  *ELSET, ELSET=SURF1
  *ELCOPY, OLD SET=SURF1, NEW SET=SURF2,
  *ELSET, ELSET=CR
  *ELCOPY, OLD SET=SURF1, NEW SET=M_1,
  *ELCOPY, OLD SET=SURF1, NEW SET=M_2,
  *ELCOPY, OLD SET=SURF1, NEW SET=M_3,
  *ELGEN, ELSET=M_4
  *ELSET, ELSET=MA_U
  *ELSET, ELSET=MA_L
  *ELGEN, ELSET=C_1
  *ELGEN, ELSET=C_2
  *ELGEN, ELSET=C_3
  *ELSET, ELSET=CO
  *ELGEN, ELSET=IC
  *INCLUDE, INPUT=load

  *** INPUT DATA IS READ FROM FILE load                                                                                                                                                                                                                                                           

  *MATERIAL,NAME=MATCR
  *DENSITY
  *ELASTIC
  *MATERIAL,NAME=MATMAU
  *DENSITY
  *ELASTIC
  *CREEP, LAW=STRAIN
  *MATERIAL,NAME=MATMAL
  *DENSITY
  *ELASTIC
  *CREEP, LAW=STRAIN
  *MATERIAL,NAME=MATCO
  *DENSITY
  *ELASTIC
  *CREEP, LAW=STRAIN
  *MATERIAL,NAME=MATIC
  *DENSITY
  *ELASTIC
  *CREEP, LAW=STRAIN
  *SOLID SECTION,ELSET=CR,MATERIAL=MATCR
  *SOLID SECTION,ELSET=MA_U,MATERIAL=MATMAU
  *SOLID SECTION,ELSET=MA_L,MATERIAL=MATMAL
  *SOLID SECTION,ELSET=CO, MATERIAL=MATCO
  *SOLID SECTION,ELSET=IC,MATERIAL=MATIC
  *BOUNDARY
  *BOUNDARY
  *SOLID SECTION,ELSET=CR,MATERIAL=MATCR
  *SOLID SECTION,ELSET=MA_U,MATERIAL=MATMAU
  *SOLID SECTION,ELSET=MA_L,MATERIAL=MATMAL
  *SOLID SECTION,ELSET=CO, MATERIAL=MATCO
  *SOLID SECTION,ELSET=IC,MATERIAL=MATIC
  *FOUNDATION
  *OUTPUT, DIAGNOSTICS=NO
  *OUTPUT, FIELD, FREQUENCY=0
  *OUTPUT, HISTORY, FREQUENCY=0
  *OUTPUT, DIAGNOSTICS=NO
  *OUTPUT, FIELD, FREQUENCY=0
  *OUTPUT, HISTORY, FREQUENCY=0
  *OUTPUT, DIAGNOSTICS=NO
  *OUTPUT, FIELD, FREQUENCY=0
  *OUTPUT, HISTORY, FREQUENCY=0
  *OUTPUT, DIAGNOSTICS=NO
  *OUTPUT, FIELD, FREQUENCY=0
  *OUTPUT, HISTORY, FREQUENCY=0
  *OUTPUT, DIAGNOSTICS=NO
  *OUTPUT, FIELD, FREQUENCY=0
  *OUTPUT, HISTORY, FREQUENCY=0
  *OUTPUT, DIAGNOSTICS=NO
  *OUTPUT, FIELD, FREQUENCY=0
  *OUTPUT, HISTORY, FREQUENCY=0
  *OUTPUT, DIAGNOSTICS=NO
  *OUTPUT, FIELD, FREQUENCY=0
  *OUTPUT, HISTORY, FREQUENCY=0
  *OUTPUT, DIAGNOSTICS=NO
  *OUTPUT, FIELD, FREQUENCY=0
  *OUTPUT, HISTORY, FREQUENCY=0
  *OUTPUT, DIAGNOSTICS=NO
  *OUTPUT, FIELD, FREQUENCY=0
  *OUTPUT, HISTORY, FREQUENCY=0
  *STEP, INC=200, AMPLITUDE=STEP
  *OUTPUT, DIAGNOSTICS=NO
  *OUTPUT, FIELD, FREQUENCY=0
  *OUTPUT, HISTORY, FREQUENCY=0
  *STEP, INC=200, AMPLITUDE=STEP
  *OUTPUT, DIAGNOSTICS=NO
  *OUTPUT, FIELD, FREQUENCY=0
  *OUTPUT, HISTORY, FREQUENCY=0
  *STEP, INC=200, AMPLITUDE=STEP
  *OUTPUT, DIAGNOSTICS=NO
  *OUTPUT, FIELD, FREQUENCY=0
  *OUTPUT, HISTORY, FREQUENCY=0
  *STEP, INC=200, AMPLITUDE=STEP
  *STEP, INC=200, AMPLITUDE=STEP
  *STEP, INC=200, AMPLITUDE=STEP
  *STEP, INC=200, AMPLITUDE=STEP
  *VISCO, CETOL=1E-1
  *DLOAD, OP=NEW
  *OUTPUT, DIAGNOSTICS=NO
  *OUTPUT, FIELD, FREQUENCY=0
  *OUTPUT, HISTORY, FREQUENCY=0
  *NODE PRINT,FREQ=100,NSET=UZPLANE
  *END STEP
  *STEP, INC=200, AMPLITUDE=STEP
  *VISCO, CETOL=1E-1

 ***WARNING: THE INITIAL TIME INCREMENT IS LESS THAN THE MINIMUM TIME INCREMENT 
             SPECIFIED ON THE *VISCOELASTIC OPTION. THE MINIMUM INCREMENT SIZE 
             WILL BE SET TO THE INITIAL TIME INCREMENT.
 LINE IMAGE: 3D5, 3.1558D8,3.1558D5
  *DLOAD, OP=NEW
  *OUTPUT, DIAGNOSTICS=NO
  *OUTPUT, FIELD, FREQUENCY=0
  *OUTPUT, HISTORY, FREQUENCY=0
  *NODE PRINT,FREQ=100,NSET=UZPLANE
  *END STEP
  *STEP, INC=200, AMPLITUDE=STEP
  *VISCO, CETOL=1E-1

 ***WARNING: THE INITIAL TIME INCREMENT IS LESS THAN THE MINIMUM TIME INCREMENT 
             SPECIFIED ON THE *VISCOELASTIC OPTION. THE MINIMUM INCREMENT SIZE 
             WILL BE SET TO THE INITIAL TIME INCREMENT.
 LINE IMAGE: 3D5, 3.1558D8,3.1558D5
  *DLOAD, OP=NEW
  *OUTPUT, DIAGNOSTICS=NO
  *OUTPUT, FIELD, FREQUENCY=0
  *OUTPUT, HISTORY, FREQUENCY=0
  *NODE PRINT,FREQ=100,NSET=UZPLANE
  *END STEP
  *BOUNDARY
  *STEP, INC=200, AMPLITUDE=STEP
  *VISCO, CETOL=1E-1
  *END STEP
  *STEP, INC=200, AMPLITUDE=STEP
  *VISCO, CETOL=1E-1
  *END STEP
  *STEP, INC=200, AMPLITUDE=STEP
  *VISCO, CETOL=1E-1
  *END STEP
  
                               E L E M E N T   Q U A L I T Y  C H E C K S        
  
  
 ***NOTES: DISTORTED ISOPARAMETRIC ELEMENTS: ANGLE BETWEEN ISOPARAMETRIC LINES 
           IS LESS THAN 45 DEGREES OR GREATER THAN 135 DEGREES.
  
           TETRAHEDRAL QUALITY MEASURE: VOLUME OF TETRAHEDRON DIVIDED BY THE 
           VOLUME OF EQUILATERAL TETRAHEDRON WITH SAME CIRCUMSPHERE RADIUS; 
           0 FOR DEGENERATE TETRAHEDRON AND 1 FOR EQUILATERIAL TETRAHEDRON. IT 
           IS RECOMMENDED THAT THE TETRAHEDRAL QUALITY MEASURE BE GREATER THAN 
           0.02, THE MIN INTERIOR (DIHEDRAL) ANGLE BE GREATER THAN 10 DEGREES, 
           AND THE MAX INTERIOR (DIHEDRAL) ANGLE BE LESS THAN 160 DEGREES. 
  
           MODIFIED TETRAHEDRAL QUALITY MEASURE: ANGLES BETWEEN THE TWO LINE 
           SEGMENTS ON EACH EDGE; THE EDGES OF MODIFIED TETRAHEDRAL SHOULD BE 
           AS STRAIGHT AS POSSIBLE. IT IS RECOMMENDED THAT THE ANGLE BETWEEN 
           THE TWO LINE SEGMENTS ON EACH EDGE IS BETWEEN 160 AND 180 DEGREES. 
  
           TRIANGULAR QUALITY MEASURE: AREA OF TRIANGLE DIVIDED BY THE AREA OF 
           EQUILATERAL TRIANGLE WITH SAME CIRCUMCIRCLE RADIUS; 0 FOR DEGENERATE 
           TRIANGLE AND 1 FOR EQUILATERAL TRIANGLE. IT IS RECOMMENDED THAT THE
           TRIANGULAR QUALITY MEASURE BE GREATER THAN 0.01, THE MIN INTERIOR 
           ANGLE BE GREATER THAN 10 DEGREES, AND THE MAX INTERIOR ANGLE BE LESS 
           THAN 160 DEGREES. 
  
           NODAL ADJUSTMENTS ARISING FROM CONTACT INTERACTIONS AND/OR TIE 
           CONSTRAINTS CAN CAUSE SEVERE ELEMENT DISTORTION. IT MAY BE NECESSARY 
           TO REMESH IN ORDER TO REDUCE THE AMOUNT OF ADJUSTMENT. 

 ***WARNING: The aspect ratio for 10597 elements exceeds 100 to 1. The elements 
             have been identified in element set WarnElemAspectRatio.
  
 --------------------------------------------------------------------------------
 Elements with large aspect ratio
  
  Element  Adjusted nodes 
 --------- -------------- 
         1       NO       
         2       NO       
         3       NO       
         4       NO       
         5       NO       
         6       NO       
         7       NO       
         8       NO       
         9       NO       
        10       NO       
        11       NO       
        12       NO       
        13       NO       
        14       NO       
        15       NO       
        16       NO       
        17       NO       
        18       NO       
        19       NO       
        20       NO       
        21       NO       
        22       NO       
        23       NO       
        24       NO       
        25       NO       
        26       NO       
        27       NO       
        28       NO       
        29       NO       
        30       NO       
        31       NO       
        32       NO       
        33       NO       
        34       NO       
        35       NO       
        36       NO       
        37       NO       
        38       NO       
        39       NO       
        40       NO       
        41       NO       
        42       NO       
        43       NO       
        44       NO       
        45       NO       
        46       NO       
        47       NO       
        48       NO       
        49       NO       
        50       NO       
        51       NO       
        52       NO       
        53       NO       
        54       NO       
        55       NO       
        56       NO       
        57       NO       
        58       NO       
        59       NO       
        60       NO       
        61       NO       
        62       NO       
        63       NO       
        64       NO       
        65       NO       
        66       NO       
        67       NO       
        68       NO       
        69       NO       
        70       NO       
        71       NO       
        72       NO       
        73       NO       
        74       NO       
        75       NO       
        76       NO       
        77       NO       
        78       NO       
        79       NO       
        80       NO       
        81       NO       
        82       NO       
        83       NO       
        84       NO       
        85       NO       
        86       NO       
        87       NO       
        88       NO       
        89       NO       
        90       NO       
        91       NO       
        92       NO       
        93       NO       
        94       NO       
        95       NO       
        96       NO       
        97       NO       
       101       NO       
       197       NO       
       201       NO       
       297       NO       
       301       NO       
       397       NO       
       401       NO       
       497       NO       
       501       NO       
       597       NO       
       601       NO       
       697       NO       
       701       NO       
       797       NO       
       801       NO       
       897       NO       
       901       NO       
       997       NO       
      1001       NO       
      1097       NO       
      1101       NO       
      1197       NO       
      1201       NO       
      1297       NO       
      1301       NO       
      1397       NO       
      1401       NO       
      1497       NO       
      1501       NO       
      1597       NO       
      1601       NO       
      1697       NO       
      1701       NO       
      1797       NO       
      1801       NO       
      1897       NO       
      1901       NO       
      1997       NO       
      2001       NO       
      2097       NO       
      2101       NO       
      2197       NO       
      2201       NO       
      2297       NO       
      2301       NO       
      2397       NO       
      2401       NO       
      2497       NO       
      2501       NO       
      2597       NO       
      2601       NO       
      2697       NO       
      2701       NO       
      2797       NO       
      2801       NO       
      2897       NO       
      2901       NO       
      2997       NO       
      3001       NO       
      3097       NO       
      3101       NO       
      3197       NO       
      3201       NO       
      3297       NO       
      3301       NO       
      3397       NO       
      3401       NO       
      3497       NO       
      3501       NO       
      3597       NO       
      3601       NO       
      3697       NO       
      3701       NO       
      3797       NO       
      3801       NO       
      3897       NO       
      3901       NO       
      3997       NO       
      4001       NO       
      4097       NO       
      4101       NO       
      4197       NO       
      4201       NO       
      4297       NO       
      4301       NO       
      4397       NO       
      4401       NO       
      4497       NO       
      4501       NO       
      4597       NO       
      4601       NO       
      4697       NO       
      4701       NO       
      4797       NO       
      4801       NO       
      4897       NO       
      4901       NO       
      4997       NO       
      5001       NO       
      5097       NO       
      5101       NO       
      5197       NO       
      5201       NO       
      5297       NO       
      5301       NO       
      5397       NO       
      5401       NO       
      5497       NO       
      5501       NO       
      5597       NO       
      5601       NO       
      5697       NO       
      5701       NO       
      5797       NO       
      5801       NO       
      5897       NO       
      5901       NO       
      5997       NO       
      6001       NO       
      6097       NO       
      6101       NO       
      6197       NO       
      6201       NO       
      6297       NO       
      6301       NO       
      6397       NO       
      6401       NO       
      6497       NO       
      6501       NO       
      6597       NO       
      6601       NO       
      6697       NO       
      6701       NO       
      6797       NO       
      6801       NO       
      6897       NO       
      6901       NO       
      6997       NO       
      7001       NO       
      7097       NO       
      7101       NO       
      7197       NO       
      7201       NO       
      7297       NO       
      7301       NO       
      7397       NO       
      7401       NO       
      7497       NO       
      7501       NO       
      7597       NO       
      7601       NO       
      7697       NO       
      7701       NO       
      7797       NO       
      7801       NO       
      7897       NO       
      7901       NO       
      7997       NO       
      8001       NO       
      8097       NO       
      8101       NO       
      8197       NO       
      8201       NO       
      8297       NO       
      8301       NO       
      8397       NO       
      8401       NO       
      8497       NO       
      8501       NO       
      8597       NO       
      8601       NO       
      8697       NO       
      8701       NO       
      8797       NO       
      8801       NO       
      8897       NO       
      8901       NO       
      8997       NO       
      9001       NO       
      9097       NO       
      9101       NO       
      9197       NO       
      9201       NO       
      9297       NO       
      9301       NO       
      9397       NO       
      9401       NO       
      9497       NO       
      9501       NO       
      9597       NO       
      9601       NO       
      9602       NO       
      9603       NO       
      9604       NO       
      9605       NO       
      9606       NO       
      9607       NO       
      9608       NO       
      9609       NO       
      9610       NO       
      9611       NO       
      9612       NO       
      9613       NO       
      9614       NO       
      9615       NO       
      9616       NO       
      9617       NO       
      9618       NO       
      9619       NO       
      9620       NO       
      9621       NO       
      9622       NO       
      9623       NO       
      9624       NO       
      9625       NO       
      9626       NO       
      9627       NO       
      9628       NO       
      9629       NO       
      9630       NO       
      9631       NO       
      9632       NO       
      9633       NO       
      9634       NO       
      9635       NO       
      9636       NO       
      9637       NO       
      9638       NO       
      9639       NO       
      9640       NO       
      9641       NO       
      9642       NO       
      9643       NO       
      9644       NO       
      9645       NO       
      9646       NO       
      9647       NO       
      9648       NO       
      9649       NO       
      9650       NO       
      9651       NO       
      9652       NO       
      9653       NO       
      9654       NO       
      9655       NO       
      9656       NO       
      9657       NO       
      9658       NO       
      9659       NO       
      9660       NO       
      9661       NO       
      9662       NO       
      9663       NO       
      9664       NO       
      9665       NO       
      9666       NO       
      9667       NO       
      9668       NO       
      9669       NO       
      9670       NO       
      9671       NO       
      9672       NO       
      9673       NO       
      9674       NO       
      9675       NO       
      9676       NO       
      9677       NO       
      9678       NO       
      9679       NO       
      9680       NO       
      9681       NO       
      9682       NO       
      9683       NO       
      9684       NO       
      9685       NO       
      9686       NO       
      9687       NO       
      9688       NO       
      9689       NO       
      9690       NO       
      9691       NO       
      9692       NO       
      9693       NO       
      9694       NO       
      9695       NO       
      9696       NO       
      9697       NO       
     10001       NO       
     10002       NO       
     10003       NO       
     10004       NO       
     10005       NO       
     10006       NO       
     10007       NO       
     10008       NO       
     10009       NO       
     10010       NO       
     10011       NO       
     10012       NO       
     10013       NO       
     10014       NO       
     10015       NO       
     10016       NO       
     10017       NO       
     10018       NO       
     10019       NO       
     10020       NO       
     10021       NO       
     10022       NO       
     10023       NO       
     10024       NO       
     10025       NO       
     10026       NO       
     10027       NO       
     10028       NO       
     10029       NO       
     10030       NO       
     10031       NO       
     10032       NO       
     10033       NO       
     10034       NO       
     10035       NO       
     10036       NO       
     10037       NO       
     10038       NO       
     10039       NO       
     10040       NO       
     10041       NO       
     10042       NO       
     10043       NO       
     10044       NO       
     10045       NO       
     10046       NO       
     10047       NO       
     10048       NO       
     10049       NO       
     10050       NO       
     10051       NO       
     10052       NO       
     10053       NO       
     10054       NO       
     10055       NO       
     10056       NO       
     10057       NO       
     10058       NO       
     10059       NO       
     10060       NO       
     10061       NO       
     10062       NO       
     10063       NO       
     10064       NO       
     10065       NO       
     10066       NO       
     10067       NO       
     10068       NO       
     10069       NO       
     10070       NO       
     10071       NO       
     10072       NO       
     10073       NO       
     10074       NO       
     10075       NO       
     10076       NO       
     10077       NO       
     10078       NO       
     10079       NO       
     10080       NO       
     10081       NO       
     10082       NO       
     10083       NO       
     10084       NO       
     10085       NO       
     10086       NO       
     10087       NO       
     10088       NO       
     10089       NO       
     10090       NO       
     10091       NO       
     10092       NO       
     10093       NO       
     10094       NO       
     10095       NO       
     10096       NO       
     10097       NO       
     10101       NO       
     10102       NO       
     10103       NO       
     10104       NO       
     10105       NO       
     10106       NO       
     10107       NO       
     10108       NO       
     10109       NO       
     10110       NO       
     10111       NO       
     10112       NO       
     10113       NO       
     10114       NO       
     10115       NO       
     10116       NO       
     10117       NO       
     10118       NO       
     10119       NO       
     10120       NO       
     10121       NO       
     10122       NO       
     10123       NO       
     10124       NO       
     10125       NO       
     10126       NO       
     10127       NO       
     10128       NO       
     10129       NO       
     10130       NO       
     10131       NO       
     10132       NO       
     10133       NO       
     10134       NO       
     10135       NO       
     10136       NO       
     10137       NO       
     10138       NO       
     10139       NO       
     10140       NO       
     10141       NO       
     10142       NO       
     10143       NO       
     10144       NO       
     10145       NO       
     10146       NO       
     10147       NO       
     10148       NO       
     10149       NO       
     10150       NO       
     10151       NO       
     10152       NO       
     10153       NO       
     10154       NO       
     10155       NO       
     10156       NO       
     10157       NO       
     10158       NO       
     10159       NO       
     10160       NO       
     10161       NO       
     10162       NO       
     10163       NO       
     10164       NO       
     10165       NO       
     10166       NO       
     10167       NO       
     10168       NO       
     10169       NO       
     10170       NO       
     10171       NO       
     10172       NO       
     10173       NO       
     10174       NO       
     10175       NO       
     10176       NO       
     10177       NO       
     10178       NO       
     10179       NO       
     10180       NO       
     10181       NO       
     10182       NO       
     10183       NO       
     10184       NO       
     10185       NO       
     10186       NO       
     10187       NO       
     10188       NO       
     10189       NO       
     10190       NO       
     10191       NO       
     10192       NO       
     10193       NO       
     10194       NO       
     10195       NO       
     10196       NO       
     10197       NO       
     10201       NO       
     10202       NO       
     10203       NO       
     10204       NO       
     10205       NO       
     10206       NO       
     10207       NO       
     10208       NO       
     10209       NO       
     10210       NO       
     10211       NO       
     10212       NO       
     10213       NO       
     10214       NO       
     10215       NO       
     10216       NO       
     10217       NO       
     10218       NO       
     10219       NO       
     10220       NO       
     10221       NO       
     10222       NO       
     10223       NO       
     10224       NO       
     10225       NO       
     10226       NO       
     10227       NO       
     10228       NO       
     10229       NO       
     10230       NO       
     10231       NO       
     10232       NO       
     10233       NO       
     10234       NO       
     10235       NO       
     10236       NO       
     10237       NO       
     10238       NO       
     10239       NO       
     10240       NO       
     10241       NO       
     10242       NO       
     10243       NO       
     10244       NO       
     10245       NO       
     10246       NO       
     10247       NO       
     10248       NO       
     10249       NO       
     10250       NO       
     10251       NO       
     10252       NO       
     10253       NO       
     10254       NO       
     10255       NO       
     10256       NO       
     10257       NO       
     10258       NO       
     10259       NO       
     10260       NO       
     10261       NO       
     10262       NO       
     10263       NO       
     10264       NO       
     10265       NO       
     10266       NO       
     10267       NO       
     10268       NO       
     10269       NO       
     10270       NO       
     10271       NO       
     10272       NO       
     10273       NO       
     10274       NO       
     10275       NO       
     10276       NO       
     10277       NO       
     10278       NO       
     10279       NO       
     10280       NO       
     10281       NO       
     10282       NO       
     10283       NO       
     10284       NO       
     10285       NO       
     10286       NO       
     10287       NO       
     10288       NO       
     10289       NO       
     10290       NO       
     10291       NO       
     10292       NO       
     10293       NO       
     10294       NO       
     10295       NO       
     10296       NO       
     10297       NO       
     10301       NO       
     10302       NO       
     10303       NO       
     10395       NO       
     10396       NO       
     10397       NO       
     10401       NO       
     10402       NO       
     10403       NO       
     10495       NO       
     10496       NO       
     10497       NO       
     10501       NO       
     10502       NO       
     10503       NO       
     10595       NO       
     10596       NO       
     10597       NO       
     10601       NO       
     10602       NO       
     10603       NO       
     10695       NO       
     10696       NO       
     10697       NO       
     10701       NO       
     10702       NO       
     10703       NO       
     10795       NO       
     10796       NO       
     10797       NO       
     10801       NO       
     10802       NO       
     10803       NO       
     10895       NO       
     10896       NO       
     10897       NO       
     10901       NO       
     10902       NO       
     10903       NO       
     10995       NO       
     10996       NO       
     10997       NO       
     11001       NO       
     11002       NO       
     11003       NO       
     11095       NO       
     11096       NO       
     11097       NO       
     11101       NO       
     11102       NO       
     11103       NO       
     11195       NO       
     11196       NO       
     11197       NO       
     11201       NO       
     11202       NO       
     11203       NO       
     11295       NO       
     11296       NO       
     11297       NO       
     11301       NO       
     11302       NO       
     11303       NO       
     11395       NO       
     11396       NO       
     11397       NO       
     11401       NO       
     11402       NO       
     11403       NO       
     11495       NO       
     11496       NO       
     11497       NO       
     11501       NO       
     11502       NO       
     11503       NO       
     11595       NO       
     11596       NO       
     11597       NO       
     11601       NO       
     11602       NO       
     11603       NO       
     11695       NO       
     11696       NO       
     11697       NO       
     11701       NO       
     11702       NO       
     11703       NO       
     11795       NO       
     11796       NO       
     11797       NO       
     11801       NO       
     11802       NO       
     11803       NO       
     11895       NO       
     11896       NO       
     11897       NO       
     11901       NO       
     11902       NO       
     11903       NO       
     11995       NO       
     11996       NO       
     11997       NO       
     12001       NO       
     12002       NO       
     12003       NO       
     12095       NO       
     12096       NO       
     12097       NO       
     12101       NO       
     12102       NO       
     12103       NO       
     12195       NO       
     12196       NO       
     12197       NO       
     12201       NO       
     12202       NO       
     12203       NO       
     12295       NO       
     12296       NO       
     12297       NO       
     12301       NO       
     12302       NO       
     12303       NO       
     12395       NO       
     12396       NO       
     12397       NO       
     12401       NO       
     12402       NO       
     12403       NO       
     12495       NO       
     12496       NO       
     12497       NO       
     12501       NO       
     12502       NO       
     12503       NO       
     12595       NO       
     12596       NO       
     12597       NO       
     12601       NO       
     12602       NO       
     12603       NO       
     12695       NO       
     12696       NO       
     12697       NO       
     12701       NO       
     12702       NO       
     12703       NO       
     12795       NO       
     12796       NO       
     12797       NO       
     12801       NO       
     12802       NO       
     12803       NO       
     12895       NO       
     12896       NO       
     12897       NO       
     12901       NO       
     12902       NO       
     12903       NO       
     12995       NO       
     12996       NO       
     12997       NO       
     13001       NO       
     13002       NO       
     13003       NO       
     13095       NO       
     13096       NO       
     13097       NO       
     13101       NO       
     13102       NO       
     13103       NO       
     13195       NO       
     13196       NO       
     13197       NO       
     13201       NO       
     13202       NO       
     13203       NO       
     13295       NO       
     13296       NO       
     13297       NO       
     13301       NO       
     13302       NO       
     13303       NO       
     13395       NO       
     13396       NO       
     13397       NO       
     13401       NO       
     13402       NO       
     13403       NO       
     13495       NO       
     13496       NO       
     13497       NO       
     13501       NO       
     13502       NO       
     13503       NO       
     13595       NO       
     13596       NO       
     13597       NO       
     13601       NO       
     13602       NO       
     13603       NO       
     13695       NO       
     13696       NO       
     13697       NO       
     13701       NO       
     13702       NO       
     13703       NO       
     13795       NO       
     13796       NO       
     13797       NO       
     13801       NO       
     13802       NO       
     13803       NO       
     13895       NO       
     13896       NO       
     13897       NO       
     13901       NO       
     13902       NO       
     13903       NO       
     13995       NO       
     13996       NO       
     13997       NO       
     14001       NO       
     14002       NO       
     14003       NO       
     14095       NO       
     14096       NO       
     14097       NO       
     14101       NO       
     14102       NO       
     14103       NO       
     14195       NO       
     14196       NO       
     14197       NO       
     14201       NO       
     14202       NO       
     14203       NO       
     14295       NO       
     14296       NO       
     14297       NO       
     14301       NO       
     14302       NO       
     14303       NO       
     14395       NO       
     14396       NO       
     14397       NO       
     14401       NO       
     14402       NO       
     14403       NO       
     14495       NO       
     14496       NO       
     14497       NO       
     14501       NO       
     14502       NO       
     14503       NO       
     14595       NO       
     14596       NO       
     14597       NO       
     14601       NO       
     14602       NO       
     14603       NO       
     14695       NO       
     14696       NO       
     14697       NO       
     14701       NO       
     14702       NO       
     14703       NO       
     14795       NO       
     14796       NO       
     14797       NO       
     14801       NO       
     14802       NO       
     14803       NO       
     14895       NO       
     14896       NO       
     14897       NO       
     14901       NO       
     14902       NO       
     14903       NO       
     14995       NO       
     14996       NO       
     14997       NO       
     15001       NO       
     15002       NO       
     15003       NO       
     15095       NO       
     15096       NO       
     15097       NO       
     15101       NO       
     15102       NO       
     15103       NO       
     15195       NO       
     15196       NO       
     15197       NO       
     15201       NO       
     15202       NO       
     15203       NO       
     15295       NO       
     15296       NO       
     15297       NO       
     15301       NO       
     15302       NO       
     15303       NO       
     15395       NO       
     15396       NO       
     15397       NO       
     15401       NO       
     15402       NO       
     15403       NO       
     15495       NO       
     15496       NO       
     15497       NO       
     15501       NO       
     15502       NO       
     15503       NO       
     15595       NO       
     15596       NO       
     15597       NO       
     15601       NO       
     15602       NO       
     15603       NO       
     15695       NO       
     15696       NO       
     15697       NO       
     15701       NO       
     15702       NO       
     15703       NO       
     15795       NO       
     15796       NO       
     15797       NO       
     15801       NO       
     15802       NO       
     15803       NO       
     15895       NO       
     15896       NO       
     15897       NO       
     15901       NO       
     15902       NO       
     15903       NO       
     15995       NO       
     15996       NO       
     15997       NO       
     16001       NO       
     16002       NO       
     16003       NO       
     16095       NO       
     16096       NO       
     16097       NO       
     16101       NO       
     16102       NO       
     16103       NO       
     16195       NO       
     16196       NO       
     16197       NO       
     16201       NO       
     16202       NO       
     16203       NO       
     16295       NO       
     16296       NO       
     16297       NO       
     16301       NO       
     16302       NO       
     16303       NO       
     16395       NO       
     16396       NO       
     16397       NO       
     16401       NO       
     16402       NO       
     16403       NO       
     16495       NO       
     16496       NO       
     16497       NO       
     16501       NO       
     16502       NO       
     16503       NO       
     16595       NO       
     16596       NO       
     16597       NO       
     16601       NO       
     16602       NO       
     16603       NO       
     16695       NO       
     16696       NO       
     16697       NO       
     16701       NO       
     16702       NO       
     16703       NO       
     16795       NO       
     16796       NO       
     16797       NO       
     16801       NO       
     16802       NO       
     16803       NO       
     16895       NO       
     16896       NO       
     16897       NO       
     16901       NO       
     16902       NO       
     16903       NO       
     16995       NO       
     16996       NO       
     16997       NO       
     17001       NO       
     17002       NO       
     17003       NO       
     17095       NO       
     17096       NO       
     17097       NO       
     17101       NO       
     17102       NO       
     17103       NO       
     17195       NO       
     17196       NO       
     17197       NO       
     17201       NO       
     17202       NO       
     17203       NO       
     17295       NO       
     17296       NO       
     17297       NO       
     17301       NO       
     17302       NO       
     17303       NO       
     17395       NO       
     17396       NO       
     17397       NO       
     17401       NO       
     17402       NO       
     17403       NO       
     17495       NO       
     17496       NO       
     17497       NO       
     17501       NO       
     17502       NO       
     17503       NO       
     17595       NO       
     17596       NO       
     17597       NO       
     17601       NO       
     17602       NO       
     17603       NO       
     17695       NO       
     17696       NO       
     17697       NO       
     17701       NO       
     17702       NO       
     17703       NO       
     17795       NO       
     17796       NO       
     17797       NO       
     17801       NO       
     17802       NO       
     17803       NO       
     17895       NO       
     17896       NO       
     17897       NO       
     17901       NO       
     17902       NO       
     17903       NO       
     17995       NO       
     17996       NO       
     17997       NO       
     18001       NO       
     18002       NO       
     18003       NO       
     18095       NO       
     18096       NO       
     18097       NO       
     18101       NO       
     18102       NO       
     18103       NO       
     18195       NO       
     18196       NO       
     18197       NO       
     18201       NO       
     18202       NO       
     18203       NO       
     18295       NO       
     18296       NO       
     18297       NO       
     18301       NO       
     18302       NO       
     18303       NO       
     18395       NO       
     18396       NO       
     18397       NO       
     18401       NO       
     18402       NO       
     18403       NO       
     18495       NO       
     18496       NO       
     18497       NO       
     18501       NO       
     18502       NO       
     18503       NO       
     18595       NO       
     18596       NO       
     18597       NO       
     18601       NO       
     18602       NO       
     18603       NO       
     18695       NO       
     18696       NO       
     18697       NO       
     18701       NO       
     18702       NO       
     18703       NO       
     18795       NO       
     18796       NO       
     18797       NO       
     18801       NO       
     18802       NO       
     18803       NO       
     18895       NO       
     18896       NO       
     18897       NO       
     18901       NO       
     18902       NO       
     18903       NO       
     18995       NO       
     18996       NO       
     18997       NO       
     19001       NO       
     19002       NO       
     19003       NO       
     19095       NO       
     19096       NO       
     19097       NO       
     19101       NO       
     19102       NO       
     19103       NO       
     19195       NO       
     19196       NO       
     19197       NO       
     19201       NO       
     19202       NO       
     19203       NO       
     19295       NO       
     19296       NO       
     19297       NO       
     19301       NO       
     19302       NO       
     19303       NO       
     19395       NO       
     19396       NO       
     19397       NO       
     19401       NO       
     19402       NO       
     19403       NO       
     19404       NO       
     19405       NO       
     19406       NO       
     19407       NO       
     19408       NO       
     19409       NO       
     19410       NO       
     19411       NO       
     19412       NO       
     19413       NO       
     19414       NO       
     19415       NO       
     19416       NO       
     19417       NO       
     19418       NO       
     19419       NO       
     19420       NO       
     19421       NO       
     19422       NO       
     19423       NO       
     19424       NO       
     19425       NO       
     19426       NO       
     19427       NO       
     19428       NO       
     19429       NO       
     19430       NO       
     19431       NO       
     19432       NO       
     19433       NO       
     19434       NO       
     19435       NO       
     19436       NO       
     19437       NO       
     19438       NO       
     19439       NO       
     19440       NO       
     19441       NO       
     19442       NO       
     19443       NO       
     19444       NO       
     19445       NO       
     19446       NO       
     19447       NO       
     19448       NO       
     19449       NO       
     19450       NO       
     19451       NO       
     19452       NO       
     19453       NO       
     19454       NO       
     19455       NO       
     19456       NO       
     19457       NO       
     19458       NO       
     19459       NO       
     19460       NO       
     19461       NO       
     19462       NO       
     19463       NO       
     19464       NO       
     19465       NO       
     19466       NO       
     19467       NO       
     19468       NO       
     19469       NO       
     19470       NO       
     19471       NO       
     19472       NO       
     19473       NO       
     19474       NO       
     19475       NO       
     19476       NO       
     19477       NO       
     19478       NO       
     19479       NO       
     19480       NO       
     19481       NO       
     19482       NO       
     19483       NO       
     19484       NO       
     19485       NO       
     19486       NO       
     19487       NO       
     19488       NO       
     19489       NO       
     19490       NO       
     19491       NO       
     19492       NO       
     19493       NO       
     19494       NO       
     19495       NO       
     19496       NO       
     19497       NO       
     19501       NO       
     19502       NO       
     19503       NO       
     19504       NO       
     19505       NO       
     19506       NO       
     19507       NO       
     19508       NO       
     19509       NO       
     19510       NO       
     19511       NO       
     19512       NO       
     19513       NO       
     19514       NO       
     19515       NO       
     19516       NO       
     19517       NO       
     19518       NO       
     19519       NO       
     19520       NO       
     19521       NO       
     19522       NO       
     19523       NO       
     19524       NO       
     19525       NO       
     19526       NO       
     19527       NO       
     19528       NO       
     19529       NO       
     19530       NO       
     19531       NO       
     19532       NO       
     19533       NO       
     19534       NO       
     19535       NO       
     19536       NO       
     19537       NO       
     19538       NO       
     19539       NO       
     19540       NO       
     19541       NO       
     19542       NO       
     19543       NO       
     19544       NO       
     19545       NO       
     19546       NO       
     19547       NO       
     19548       NO       
     19549       NO       
     19550       NO       
     19551       NO       
     19552       NO       
     19553       NO       
     19554       NO       
     19555       NO       
     19556       NO       
     19557       NO       
     19558       NO       
     19559       NO       
     19560       NO       
     19561       NO       
     19562       NO       
     19563       NO       
     19564       NO       
     19565       NO       
     19566       NO       
     19567       NO       
     19568       NO       
     19569       NO       
     19570       NO       
     19571       NO       
     19572       NO       
     19573       NO       
     19574       NO       
     19575       NO       
     19576       NO       
     19577       NO       
     19578       NO       
     19579       NO       
     19580       NO       
     19581       NO       
     19582       NO       
     19583       NO       
     19584       NO       
     19585       NO       
     19586       NO       
     19587       NO       
     19588       NO       
     19589       NO       
     19590       NO       
     19591       NO       
     19592       NO       
     19593       NO       
     19594       NO       
     19595       NO       
     19596       NO       
     19597       NO       
     19601       NO       
     19602       NO       
     19603       NO       
     19604       NO       
     19605       NO       
     19606       NO       
     19607       NO       
     19608       NO       
     19609       NO       
     19610       NO       
     19611       NO       
     19612       NO       
     19613       NO       
     19614       NO       
     19615       NO       
     19616       NO       
     19617       NO       
     19618       NO       
     19619       NO       
     19620       NO       
     19621       NO       
     19622       NO       
     19623       NO       
     19624       NO       
     19625       NO       
     19626       NO       
     19627       NO       
     19628       NO       
     19629       NO       
     19630       NO       
     19631       NO       
     19632       NO       
     19633       NO       
     19634       NO       
     19635       NO       
     19636       NO       
     19637       NO       
     19638       NO       
     19639       NO       
     19640       NO       
     19641       NO       
     19642       NO       
     19643       NO       
     19644       NO       
     19645       NO       
     19646       NO       
     19647       NO       
     19648       NO       
     19649       NO       
     19650       NO       
     19651       NO       
     19652       NO       
     19653       NO       
     19654       NO       
     19655       NO       
     19656       NO       
     19657       NO       
     19658       NO       
     19659       NO       
     19660       NO       
     19661       NO       
     19662       NO       
     19663       NO       
     19664       NO       
     19665       NO       
     19666       NO       
     19667       NO       
     19668       NO       
     19669       NO       
     19670       NO       
     19671       NO       
     19672       NO       
     19673       NO       
     19674       NO       
     19675       NO       
     19676       NO       
     19677       NO       
     19678       NO       
     19679       NO       
     19680       NO       
     19681       NO       
     19682       NO       
     19683       NO       
     19684       NO       
     19685       NO       
     19686       NO       
     19687       NO       
     19688       NO       
     19689       NO       
     19690       NO       
     19691       NO       
     19692       NO       
     19693       NO       
     19694       NO       
     19695       NO       
     19696       NO       
     19697       NO       
     90010       NO       
     90011       NO       
     90012       NO       
     90013       NO       
     90014       NO       
     90015       NO       
     90016       NO       
     90017       NO       
     90018       NO       
     90019       NO       
     90020       NO       
     90021       NO       
     90022       NO       
     90023       NO       
     90024       NO       
     90025       NO       
     90026       NO       
     90027       NO       
     90028       NO       
     90029       NO       
     90030       NO       
     90031       NO       
     90032       NO       
     90033       NO       
     90034       NO       
     90035       NO       
     90036       NO       
     90037       NO       
     90038       NO       
     90039       NO       
     90040       NO       
     90041       NO       
     90042       NO       
     90043       NO       
     90044       NO       
     90045       NO       
     90046       NO       
     90047       NO       
     90048       NO       
     90049       NO       
     90050       NO       
     90051       NO       
     90052       NO       
     90053       NO       
     90054       NO       
     90055       NO       
     90056       NO       
     90057       NO       
     90058       NO       
     90059       NO       
     90060       NO       
     90061       NO       
     90062       NO       
     90063       NO       
     90064       NO       
     90065       NO       
     90066       NO       
     90067       NO       
     90068       NO       
     90069       NO       
     90070       NO       
     90071       NO       
     90072       NO       
     90073       NO       
     90074       NO       
     90075       NO       
     90076       NO       
     90077       NO       
     90078       NO       
     90079       NO       
     90080       NO       
     90081       NO       
     90082       NO       
     90083       NO       
     90084       NO       
     90085       NO       
     90086       NO       
     90087       NO       
     90088       NO       
     90110       NO       
     90111       NO       
     90112       NO       
     90113       NO       
     90114       NO       
     90115       NO       
     90116       NO       
     90117       NO       
     90118       NO       
     90119       NO       
     90120       NO       
     90121       NO       
     90122       NO       
     90123       NO       
     90124       NO       
     90125       NO       
     90126       NO       
     90127       NO       
     90128       NO       
     90129       NO       
     90130       NO       
     90131       NO       
     90132       NO       
     90133       NO       
     90134       NO       
     90135       NO       
     90136       NO       
     90137       NO       
     90138       NO       
     90139       NO       
     90140       NO       
     90141       NO       
     90142       NO       
     90143       NO       
     90144       NO       
     90145       NO       
     90146       NO       
     90147       NO       
     90148       NO       
     90149       NO       
     90150       NO       
     90151       NO       
     90152       NO       
     90153       NO       
     90154       NO       
     90155       NO       
     90156       NO       
     90157       NO       
     90158       NO       
     90159       NO       
     90160       NO       
     90161       NO       
     90162       NO       
     90163       NO       
     90164       NO       
     90165       NO       
     90166       NO       
     90167       NO       
     90168       NO       
     90169       NO       
     90170       NO       
     90171       NO       
     90172       NO       
     90173       NO       
     90174       NO       
     90175       NO       
     90176       NO       
     90177       NO       
     90178       NO       
     90179       NO       
     90180       NO       
     90181       NO       
     90182       NO       
     90183       NO       
     90184       NO       
     90185       NO       
     90186       NO       
     90187       NO       
     90188       NO       
     90210       NO       
     90211       NO       
     90212       NO       
     90213       NO       
     90214       NO       
     90215       NO       
     90216       NO       
     90217       NO       
     90218       NO       
     90219       NO       
     90220       NO       
     90221       NO       
     90222       NO       
     90223       NO       
     90224       NO       
     90225       NO       
     90226       NO       
     90227       NO       
     90228       NO       
     90229       NO       
     90230       NO       
     90231       NO       
     90232       NO       
     90233       NO       
     90234       NO       
     90235       NO       
     90236       NO       
     90237       NO       
     90238       NO       
     90239       NO       
     90240       NO       
     90241       NO       
     90242       NO       
     90243       NO       
     90244       NO       
     90245       NO       
     90246       NO       
     90247       NO       
     90248       NO       
     90249       NO       
     90250       NO       
     90251       NO       
     90252       NO       
     90253       NO       
     90254       NO       
     90255       NO       
     90256       NO       
     90257       NO       
     90258       NO       
     90259       NO       
     90260       NO       
     90261       NO       
     90262       NO       
     90263       NO       
     90264       NO       
     90265       NO       
     90266       NO       
     90267       NO       
     90268       NO       
     90269       NO       
     90270       NO       
     90271       NO       
     90272       NO       
     90273       NO       
     90274       NO       
     90275       NO       
     90276       NO       
     90277       NO       
     90278       NO       
     90279       NO       
     90280       NO       
     90281       NO       
     90282       NO       
     90283       NO       
     90284       NO       
     90285       NO       
     90286       NO       
     90287       NO       
     90288       NO       
     90310       NO       
     90311       NO       
     90312       NO       
     90313       NO       
     90314       NO       
     90315       NO       
     90316       NO       
     90317       NO       
     90318       NO       
     90319       NO       
     90320       NO       
     90321       NO       
     90322       NO       
     90323       NO       
     90324       NO       
     90325       NO       
     90326       NO       
     90327       NO       
     90328       NO       
     90329       NO       
     90330       NO       
     90331       NO       
     90332       NO       
     90333       NO       
     90334       NO       
     90335       NO       
     90336       NO       
     90337       NO       
     90338       NO       
     90339       NO       
     90340       NO       
     90341       NO       
     90342       NO       
     90343       NO       
     90344       NO       
     90345       NO       
     90346       NO       
     90347       NO       
     90348       NO       
     90349       NO       
     90350       NO       
     90351       NO       
     90352       NO       
     90353       NO       
     90354       NO       
     90355       NO       
     90356       NO       
     90357       NO       
     90358       NO       
     90359       NO       
     90360       NO       
     90361       NO       
     90362       NO       
     90363       NO       
     90364       NO       
     90365       NO       
     90366       NO       
     90367       NO       
     90368       NO       
     90369       NO       
     90370       NO       
     90371       NO       
     90372       NO       
     90373       NO       
     90374       NO       
     90375       NO       
     90376       NO       
     90377       NO       
     90378       NO       
     90379       NO       
     90380       NO       
     90381       NO       
     90382       NO       
     90383       NO       
     90384       NO       
     90385       NO       
     90386       NO       
     90387       NO       
     90388       NO       
     90410       NO       
     90411       NO       
     90412       NO       
     90413       NO       
     90414       NO       
     90415       NO       
     90416       NO       
     90417       NO       
     90418       NO       
     90419       NO       
     90420       NO       
     90421       NO       
     90422       NO       
     90423       NO       
     90424       NO       
     90425       NO       
     90426       NO       
     90427       NO       
     90428       NO       
     90429       NO       
     90430       NO       
     90431       NO       
     90432       NO       
     90433       NO       
     90434       NO       
     90435       NO       
     90436       NO       
     90437       NO       
     90438       NO       
     90439       NO       
     90440       NO       
     90441       NO       
     90442       NO       
     90443       NO       
     90444       NO       
     90445       NO       
     90446       NO       
     90447       NO       
     90448       NO       
     90449       NO       
     90450       NO       
     90451       NO       
     90452       NO       
     90453       NO       
     90454       NO       
     90455       NO       
     90456       NO       
     90457       NO       
     90458       NO       
     90459       NO       
     90460       NO       
     90461       NO       
     90462       NO       
     90463       NO       
     90464       NO       
     90465       NO       
     90466       NO       
     90467       NO       
     90468       NO       
     90469       NO       
     90470       NO       
     90471       NO       
     90472       NO       
     90473       NO       
     90474       NO       
     90475       NO       
     90476       NO       
     90477       NO       
     90478       NO       
     90479       NO       
     90480       NO       
     90481       NO       
     90482       NO       
     90483       NO       
     90484       NO       
     90485       NO       
     90486       NO       
     90487       NO       
     90488       NO       
     90510       NO       
     90511       NO       
     90512       NO       
     90513       NO       
     90514       NO       
     90515       NO       
     90516       NO       
     90517       NO       
     90518       NO       
     90519       NO       
     90520       NO       
     90521       NO       
     90522       NO       
     90523       NO       
     90524       NO       
     90525       NO       
     90526       NO       
     90527       NO       
     90528       NO       
     90529       NO       
     90530       NO       
     90531       NO       
     90532       NO       
     90533       NO       
     90534       NO       
     90535       NO       
     90536       NO       
     90537       NO       
     90538       NO       
     90539       NO       
     90540       NO       
     90541       NO       
     90542       NO       
     90543       NO       
     90544       NO       
     90545       NO       
     90546       NO       
     90547       NO       
     90548       NO       
     90549       NO       
     90550       NO       
     90551       NO       
     90552       NO       
     90553       NO       
     90554       NO       
     90555       NO       
     90556       NO       
     90557       NO       
     90558       NO       
     90559       NO       
     90560       NO       
     90561       NO       
     90562       NO       
     90563       NO       
     90564       NO       
     90565       NO       
     90566       NO       
     90567       NO       
     90568       NO       
     90569       NO       
     90570       NO       
     90571       NO       
     90572       NO       
     90573       NO       
     90574       NO       
     90575       NO       
     90576       NO       
     90577       NO       
     90578       NO       
     90579       NO       
     90580       NO       
     90581       NO       
     90582       NO       
     90583       NO       
     90584       NO       
     90585       NO       
     90586       NO       
     90587       NO       
     90588       NO       
     90610       NO       
     90611       NO       
     90612       NO       
     90613       NO       
     90614       NO       
     90615       NO       
     90616       NO       
     90617       NO       
     90618       NO       
     90619       NO       
     90620       NO       
     90621       NO       
     90622       NO       
     90623       NO       
     90624       NO       
     90625       NO       
     90626       NO       
     90627       NO       
     90628       NO       
     90629       NO       
     90630       NO       
     90631       NO       
     90632       NO       
     90633       NO       
     90634       NO       
     90635       NO       
     90636       NO       
     90637       NO       
     90638       NO       
     90639       NO       
     90640       NO       
     90641       NO       
     90642       NO       
     90643       NO       
     90644       NO       
     90645       NO       
     90646       NO       
     90647       NO       
     90648       NO       
     90649       NO       
     90650       NO       
     90651       NO       
     90652       NO       
     90653       NO       
     90654       NO       
     90655       NO       
     90656       NO       
     90657       NO       
     90658       NO       
     90659       NO       
     90660       NO       
     90661       NO       
     90662       NO       
     90663       NO       
     90664       NO       
     90665       NO       
     90666       NO       
     90667       NO       
     90668       NO       
     90669       NO       
     90670       NO       
     90671       NO       
     90672       NO       
     90673       NO       
     90674       NO       
     90675       NO       
     90676       NO       
     90677       NO       
     90678       NO       
     90679       NO       
     90680       NO       
     90681       NO       
     90682       NO       
     90683       NO       
     90684       NO       
     90685       NO       
     90686       NO       
     90687       NO       
     90688       NO       
     90710       NO       
     90711       NO       
     90712       NO       
     90713       NO       
     90714       NO       
     90715       NO       
     90716       NO       
     90717       NO       
     90718       NO       
     90719       NO       
     90720       NO       
     90721       NO       
     90722       NO       
     90723       NO       
     90724       NO       
     90725       NO       
     90726       NO       
     90727       NO       
     90728       NO       
     90729       NO       
     90730       NO       
     90731       NO       
     90732       NO       
     90733       NO       
     90734       NO       
     90735       NO       
     90736       NO       
     90737       NO       
     90738       NO       
     90739       NO       
     90740       NO       
     90741       NO       
     90742       NO       
     90743       NO       
     90744       NO       
     90745       NO       
     90746       NO       
     90747       NO       
     90748       NO       
     90749       NO       
     90750       NO       
     90751       NO       
     90752       NO       
     90753       NO       
     90754       NO       
     90755       NO       
     90756       NO       
     90757       NO       
     90758       NO       
     90759       NO       
     90760       NO       
     90761       NO       
     90762       NO       
     90763       NO       
     90764       NO       
     90765       NO       
     90766       NO       
     90767       NO       
     90768       NO       
     90769       NO       
     90770       NO       
     90771       NO       
     90772       NO       
     90773       NO       
     90774       NO       
     90775       NO       
     90776       NO       
     90777       NO       
     90778       NO       
     90779       NO       
     90780       NO       
     90781       NO       
     90782       NO       
     90783       NO       
     90784       NO       
     90785       NO       
     90786       NO       
     90787       NO       
     90788       NO       
     90810       NO       
     90811       NO       
     90812       NO       
     90813       NO       
     90814       NO       
     90815       NO       
     90816       NO       
     90817       NO       
     90818       NO       
     90819       NO       
     90820       NO       
     90821       NO       
     90822       NO       
     90823       NO       
     90824       NO       
     90825       NO       
     90826       NO       
     90827       NO       
     90828       NO       
     90829       NO       
     90830       NO       
     90831       NO       
     90832       NO       
     90833       NO       
     90834       NO       
     90835       NO       
     90836       NO       
     90837       NO       
     90838       NO       
     90839       NO       
     90840       NO       
     90841       NO       
     90842       NO       
     90843       NO       
     90844       NO       
     90845       NO       
     90846       NO       
     90847       NO       
     90848       NO       
     90849       NO       
     90850       NO       
     90851       NO       
     90852       NO       
     90853       NO       
     90854       NO       
     90855       NO       
     90856       NO       
     90857       NO       
     90858       NO       
     90859       NO       
     90860       NO       
     90861       NO       
     90862       NO       
     90863       NO       
     90864       NO       
     90865       NO       
     90866       NO       
     90867       NO       
     90868       NO       
     90869       NO       
     90870       NO       
     90871       NO       
     90872       NO       
     90873       NO       
     90874       NO       
     90875       NO       
     90876       NO       
     90877       NO       
     90878       NO       
     90879       NO       
     90880       NO       
     90881       NO       
     90882       NO       
     90883       NO       
     90884       NO       
     90885       NO       
     90886       NO       
     90887       NO       
     90888       NO       
     90901       NO       
     90902       NO       
     90903       NO       
     90904       NO       
     90905       NO       
     90906       NO       
     90907       NO       
     90908       NO       
     90909       NO       
     90910       NO       
     90911       NO       
     90912       NO       
     90913       NO       
     90914       NO       
     90915       NO       
     90916       NO       
     90917       NO       
     90918       NO       
     90919       NO       
     90920       NO       
     90921       NO       
     90922       NO       
     90923       NO       
     90924       NO       
     90925       NO       
     90926       NO       
     90927       NO       
     90928       NO       
     90929       NO       
     90930       NO       
     90931       NO       
     90932       NO       
     90933       NO       
     90934       NO       
     90935       NO       
     90936       NO       
     90937       NO       
     90938       NO       
     90939       NO       
     90940       NO       
     90941       NO       
     90942       NO       
     90943       NO       
     90944       NO       
     90945       NO       
     90946       NO       
     90947       NO       
     90948       NO       
     90949       NO       
     90950       NO       
     90951       NO       
     90952       NO       
     90953       NO       
     90954       NO       
     90955       NO       
     90956       NO       
     90957       NO       
     90958       NO       
     90959       NO       
     90960       NO       
     90961       NO       
     90962       NO       
     90963       NO       
     90964       NO       
     90965       NO       
     90966       NO       
     90967       NO       
     90968       NO       
     90969       NO       
     90970       NO       
     90971       NO       
     90972       NO       
     90973       NO       
     90974       NO       
     90975       NO       
     90976       NO       
     90977       NO       
     90978       NO       
     90979       NO       
     90980       NO       
     90981       NO       
     90982       NO       
     90983       NO       
     90984       NO       
     90985       NO       
     90986       NO       
     90987       NO       
     90988       NO       
     90989       NO       
     90990       NO       
     90991       NO       
     90992       NO       
     90993       NO       
     90994       NO       
     90995       NO       
     90996       NO       
     90997       NO       
     91001       NO       
     91002       NO       
     91003       NO       
     91004       NO       
     91005       NO       
     91006       NO       
     91007       NO       
     91008       NO       
     91009       NO       
     91010       NO       
     91011       NO       
     91012       NO       
     91013       NO       
     91014       NO       
     91015       NO       
     91016       NO       
     91017       NO       
     91018       NO       
     91019       NO       
     91020       NO       
     91021       NO       
     91022       NO       
     91023       NO       
     91024       NO       
     91025       NO       
     91026       NO       
     91027       NO       
     91028       NO       
     91029       NO       
     91030       NO       
     91031       NO       
     91032       NO       
     91033       NO       
     91034       NO       
     91035       NO       
     91036       NO       
     91037       NO       
     91038       NO       
     91039       NO       
     91040       NO       
     91041       NO       
     91042       NO       
     91043       NO       
     91044       NO       
     91045       NO       
     91046       NO       
     91047       NO       
     91048       NO       
     91049       NO       
     91050       NO       
     91051       NO       
     91052       NO       
     91053       NO       
     91054       NO       
     91055       NO       
     91056       NO       
     91057       NO       
     91058       NO       
     91059       NO       
     91060       NO       
     91061       NO       
     91062       NO       
     91063       NO       
     91064       NO       
     91065       NO       
     91066       NO       
     91067       NO       
     91068       NO       
     91069       NO       
     91070       NO       
     91071       NO       
     91072       NO       
     91073       NO       
     91074       NO       
     91075       NO       
     91076       NO       
     91077       NO       
     91078       NO       
     91079       NO       
     91080       NO       
     91081       NO       
     91082       NO       
     91083       NO       
     91084       NO       
     91085       NO       
     91086       NO       
     91087       NO       
     91088       NO       
     91089       NO       
     91090       NO       
     91091       NO       
     91092       NO       
     91093       NO       
     91094       NO       
     91095       NO       
     91096       NO       
     91097       NO       
     91101       NO       
     91102       NO       
     91103       NO       
     91104       NO       
     91105       NO       
     91106       NO       
     91107       NO       
     91108       NO       
     91109       NO       
     91110       NO       
     91111       NO       
     91112       NO       
     91113       NO       
     91114       NO       
     91115       NO       
     91116       NO       
     91117       NO       
     91118       NO       
     91119       NO       
     91120       NO       
     91121       NO       
     91122       NO       
     91123       NO       
     91124       NO       
     91125       NO       
     91126       NO       
     91127       NO       
     91128       NO       
     91129       NO       
     91130       NO       
     91131       NO       
     91132       NO       
     91133       NO       
     91134       NO       
     91135       NO       
     91136       NO       
     91137       NO       
     91138       NO       
     91139       NO       
     91140       NO       
     91141       NO       
     91142       NO       
     91143       NO       
     91144       NO       
     91145       NO       
     91146       NO       
     91147       NO       
     91148       NO       
     91149       NO       
     91150       NO       
     91151       NO       
     91152       NO       
     91153       NO       
     91154       NO       
     91155       NO       
     91156       NO       
     91157       NO       
     91158       NO       
     91159       NO       
     91160       NO       
     91161       NO       
     91162       NO       
     91163       NO       
     91164       NO       
     91165       NO       
     91166       NO       
     91167       NO       
     91168       NO       
     91169       NO       
     91170       NO       
     91171       NO       
     91172       NO       
     91173       NO       
     91174       NO       
     91175       NO       
     91176       NO       
     91177       NO       
     91178       NO       
     91179       NO       
     91180       NO       
     91181       NO       
     91182       NO       
     91183       NO       
     91184       NO       
     91185       NO       
     91186       NO       
     91187       NO       
     91188       NO       
     91189       NO       
     91190       NO       
     91191       NO       
     91192       NO       
     91193       NO       
     91194       NO       
     91195       NO       
     91196       NO       
     91197       NO       
     91201       NO       
     91202       NO       
     91203       NO       
     91204       NO       
     91205       NO       
     91206       NO       
     91207       NO       
     91208       NO       
     91209       NO       
     91210       NO       
     91211       NO       
     91212       NO       
     91213       NO       
     91214       NO       
     91215       NO       
     91216       NO       
     91217       NO       
     91218       NO       
[...]
      9584      2.7600000E+06  6.2224873E+06  8.6967771E-01  1.6754700E+00  5.3553634E-02 
      9585      2.8400000E+06  6.2224873E+06  8.8185817E-01  1.6518123E+00  5.3355244E-02 
      9586      2.9200000E+06  6.2224873E+06  8.9318616E-01  1.6280540E+00  5.3177301E-02 
      9587      2.9561929E+06  6.2224873E+06  8.9803648E-01  1.6172803E+00  5.3069280E-02 
      9588      3.0088524E+06  6.2224873E+06  9.0479376E-01  1.6015848E+00  5.2939394E-02 
      9589      3.0854704E+06  6.2224873E+06  9.1398380E-01  1.5787205E+00  5.2743640E-02 
      9590      3.1969472E+06  6.2224873E+06  9.2601736E-01  1.5454398E+00  5.2463231E-02 
      9591      3.3591424E+06  6.2224873E+06  9.4074313E-01  1.4971199E+00  5.2061277E-02 
      9592      3.5951314E+06  6.2224873E+06  9.5647765E-01  1.4274059E+00  5.1473767E-02 
      9593      3.9384879E+06  6.2224873E+06  9.6795878E-01  1.3281925E+00  5.0652165E-02 
      9594      4.4380610E+06  6.2224873E+06  9.6292327E-01  1.1909074E+00  4.9551038E-02 
      9595      5.1649241E+06  6.2224873E+06  9.1683584E-01  1.0096207E+00  4.8218304E-02 
      9596      6.2224873E+06  6.2224873E+06  7.8890465E-01  7.8890465E-01  4.6321277E-02 
      9597      7.7612086E+06  6.2224873E+06  5.0581605E-01  5.0230591E-01  4.5430331E-02 
      9598      1.0000000E+07  6.2224873E+06  0.0000000E+00  0.0000000E+00  4.5625625E-02 
      9601     -1.0000000E+07  7.7612086E+06  0.0000000E+00  0.0000000E+00  4.2889856E-02 
      9602     -7.7611093E+06  7.7612086E+06 -3.7835251E-01  3.7835218E-01  4.3300597E-02 
      9603     -6.2223528E+06  7.7612086E+06 -5.0231457E-01  5.0582902E-01  4.5430449E-02 
      9604     -5.1647882E+06  7.7612086E+06 -5.4732296E-01  6.0999929E-01  4.5998172E-02 
      9605     -4.4379397E+06  7.7612086E+06 -5.5094733E-01  6.8736409E-01  4.6616758E-02 
      9606     -3.9383875E+06  7.7612086E+06 -5.3911098E-01  7.4380064E-01  4.7059108E-02 
      9607     -3.5950526E+06  7.7612086E+06 -5.2306607E-01  7.8318822E-01  4.7400437E-02 
      9608     -3.3590836E+06  7.7612086E+06 -5.0829920E-01  8.1027239E-01  4.7601593E-02 
      9609     -3.1969056E+06  7.7612086E+06 -4.9628805E-01  8.2875561E-01  4.7761228E-02 
      9610     -3.0854431E+06  7.7612086E+06 -4.8716657E-01  8.4135565E-01  4.7861569E-02 
      9611     -3.0088365E+06  7.7612086E+06 -4.8048199E-01  8.4995103E-01  4.7935382E-02 
      9612     -2.9561859E+06  7.7612086E+06 -4.7569255E-01  8.5582316E-01  4.7981106E-02 
      9613     -2.9200000E+06  7.7612086E+06 -4.7231076E-01  8.5984064E-01  4.8022987E-02 
      9614     -2.8400000E+06  7.7612086E+06 -4.6456966E-01  8.6866484E-01  4.8083461E-02 
      9615     -2.7600000E+06  7.7612086E+06 -4.5645748E-01  8.7740112E-01  4.8154608E-02 
      9616     -2.6800000E+06  7.7612086E+06 -4.4798344E-01  8.8603922E-01  4.8220510E-02 
      9617     -2.6000000E+06  7.7612086E+06 -4.3914711E-01  8.9456898E-01  4.8287680E-02 
      9618     -2.5200000E+06  7.7612086E+06 -4.2995253E-01  9.0298011E-01  4.8353169E-02 
      9619     -2.4400000E+06  7.7612086E+06 -4.2040284E-01  9.1126226E-01  4.8417868E-02 
      9620     -2.3600000E+06  7.7612086E+06 -4.1050227E-01  9.1940505E-01  4.8481270E-02 
      9621     -2.2800000E+06  7.7612086E+06 -4.0025536E-01  9.2739810E-01  4.8543476E-02 
      9622     -2.2000000E+06  7.7612086E+06 -3.8966732E-01  9.3523103E-01  4.8604355E-02 
      9623     -2.1200000E+06  7.7612086E+06 -3.7874384E-01  9.4289352E-01  4.8663859E-02 
      9624     -2.0400000E+06  7.7612086E+06 -3.6749121E-01  9.5037530E-01  4.8721902E-02 
      9625     -1.9600000E+06  7.7612086E+06 -3.5591625E-01  9.5766620E-01  4.8778412E-02 
      9626     -1.8800000E+06  7.7612086E+06 -3.4402634E-01  9.6475619E-01  4.8833313E-02 
      9627     -1.8000000E+06  7.7612086E+06 -3.3182943E-01  9.7163537E-01  4.8886533E-02 
      9628     -1.7200000E+06  7.7612086E+06 -3.1933396E-01  9.7829400E-01  4.8938000E-02 
      9629     -1.6400000E+06  7.7612086E+06 -3.0654896E-01  9.8472258E-01  4.8987643E-02 
      9630     -1.5600000E+06  7.7612086E+06 -2.9348394E-01  9.9091179E-01  4.9035395E-02 
      9631     -1.4800000E+06  7.7612086E+06 -2.8014895E-01  9.9685260E-01  4.9081191E-02 
      9632     -1.4000000E+06  7.7612086E+06 -2.6655451E-01  1.0025362E+00  4.9124967E-02 
      9633     -1.3200000E+06  7.7612086E+06 -2.5271166E-01  1.0079543E+00  4.9166662E-02 
      9634     -1.2400000E+06  7.7612086E+06 -2.3863188E-01  1.0130985E+00  4.9206219E-02 
      9635     -1.1600000E+06  7.7612086E+06 -2.2432711E-01  1.0179612E+00  4.9243581E-02 
      9636     -1.0800000E+06  7.7612086E+06 -2.0980972E-01  1.0225349E+00  4.9278697E-02 
      9637     -1.0000000E+06  7.7612086E+06 -1.9509250E-01  1.0268125E+00  4.9311518E-02 
      9638     -9.2000000E+05  7.7612086E+06 -1.8018860E-01  1.0307876E+00  4.9341996E-02 
      9639     -8.4000000E+05  7.7612086E+06 -1.6511157E-01  1.0344539E+00  4.9370090E-02 
      9640     -7.6000000E+05  7.7612086E+06 -1.4987527E-01  1.0378056E+00  4.9395758E-02 
      9641     -6.8000000E+05  7.7612086E+06 -1.3449391E-01  1.0408375E+00  4.9418965E-02 
      9642     -6.0000000E+05  7.7612086E+06 -1.1898196E-01  1.0435448E+00  4.9439677E-02 
      9643     -5.2000000E+05  7.7612086E+06 -1.0335415E-01  1.0459232E+00  4.9457866E-02 
      9644     -4.4000000E+05  7.7612086E+06 -8.7625452E-02  1.0479690E+00  4.9473505E-02 
      9645     -3.6000000E+05  7.7612086E+06 -7.1811048E-02  1.0496788E+00  4.9486572E-02 
      9646     -2.8000000E+05  7.7612086E+06 -5.5926279E-02  1.0510499E+00  4.9497048E-02 
      9647     -2.0000000E+05  7.7612086E+06 -3.9986635E-02  1.0520803E+00  4.9504918E-02 
      9648     -1.2000000E+05  7.7612086E+06 -2.4007714E-02  1.0527680E+00  4.9510171E-02 
      9649     -4.0000000E+04  7.7612086E+06 -8.0051951E-03  1.0531122E+00  4.9512799E-02 
      9650      4.0000000E+04  7.7612086E+06  8.0051953E-03  1.0531122E+00  4.9512799E-02 
      9651      1.2000000E+05  7.7612086E+06  2.4007714E-02  1.0527680E+00  4.9510171E-02 
      9652      2.0000000E+05  7.7612086E+06  3.9986635E-02  1.0520802E+00  4.9504918E-02 
      9653      2.8000000E+05  7.7612086E+06  5.5926279E-02  1.0510499E+00  4.9497047E-02 
      9654      3.6000000E+05  7.7612086E+06  7.1811048E-02  1.0496788E+00  4.9486571E-02 
      9655      4.4000000E+05  7.7612086E+06  8.7625451E-02  1.0479690E+00  4.9473505E-02 
      9656      5.2000000E+05  7.7612086E+06  1.0335414E-01  1.0459232E+00  4.9457866E-02 
      9657      6.0000000E+05  7.7612086E+06  1.1898195E-01  1.0435448E+00  4.9439677E-02 
      9658      6.8000000E+05  7.7612086E+06  1.3449391E-01  1.0408375E+00  4.9418964E-02 
      9659      7.6000000E+05  7.7612086E+06  1.4987527E-01  1.0378056E+00  4.9395757E-02 
      9660      8.4000000E+05  7.7612086E+06  1.6511157E-01  1.0344538E+00  4.9370089E-02 
      9661      9.2000000E+05  7.7612086E+06  1.8018860E-01  1.0307876E+00  4.9341996E-02 
      9662      1.0000000E+06  7.7612086E+06  1.9509249E-01  1.0268125E+00  4.9311517E-02 
      9663      1.0800000E+06  7.7612086E+06  2.0980972E-01  1.0225348E+00  4.9278697E-02 
      9664      1.1600000E+06  7.7612086E+06  2.2432711E-01  1.0179612E+00  4.9243580E-02 
      9665      1.2400000E+06  7.7612086E+06  2.3863188E-01  1.0130985E+00  4.9206218E-02 
      9666      1.3200000E+06  7.7612086E+06  2.5271166E-01  1.0079542E+00  4.9166661E-02 
      9667      1.4000000E+06  7.7612086E+06  2.6655451E-01  1.0025362E+00  4.9124966E-02 
      9668      1.4800000E+06  7.7612086E+06  2.8014894E-01  9.9685257E-01  4.9081190E-02 
      9669      1.5600000E+06  7.7612086E+06  2.9348394E-01  9.9091176E-01  4.9035394E-02 
      9670      1.6400000E+06  7.7612086E+06  3.0654895E-01  9.8472254E-01  4.8987642E-02 
      9671      1.7200000E+06  7.7612086E+06  3.1933396E-01  9.7829397E-01  4.8937998E-02 
      9672      1.8000000E+06  7.7612086E+06  3.3182942E-01  9.7163533E-01  4.8886532E-02 
      9673      1.8800000E+06  7.7612086E+06  3.4402634E-01  9.6475615E-01  4.8833312E-02 
      9674      1.9600000E+06  7.7612086E+06  3.5591624E-01  9.5766616E-01  4.8778410E-02 
      9675      2.0400000E+06  7.7612086E+06  3.6749120E-01  9.5037525E-01  4.8721900E-02 
      9676      2.1200000E+06  7.7612086E+06  3.7874383E-01  9.4289346E-01  4.8663857E-02 
      9677      2.2000000E+06  7.7612086E+06  3.8966731E-01  9.3523097E-01  4.8604353E-02 
      9678      2.2800000E+06  7.7612086E+06  4.0025535E-01  9.2739804E-01  4.8543474E-02 
      9679      2.3600000E+06  7.7612086E+06  4.1050225E-01  9.1940499E-01  4.8481268E-02 
      9680      2.4400000E+06  7.7612086E+06  4.2040282E-01  9.1126219E-01  4.8417865E-02 
      9681      2.5200000E+06  7.7612086E+06  4.2995251E-01  9.0298004E-01  4.8353167E-02 
      9682      2.6000000E+06  7.7612086E+06  4.3914709E-01  8.9456891E-01  4.8287677E-02 
      9683      2.6800000E+06  7.7612086E+06  4.4798342E-01  8.8603913E-01  4.8220508E-02 
      9684      2.7600000E+06  7.7612086E+06  4.5645746E-01  8.7740104E-01  4.8154605E-02 
      9685      2.8400000E+06  7.7612086E+06  4.6456963E-01  8.6866474E-01  4.8083458E-02 
      9686      2.9200000E+06  7.7612086E+06  4.7231073E-01  8.5984054E-01  4.8022983E-02 
      9687      2.9561929E+06  7.7612086E+06  4.7569316E-01  8.5582228E-01  4.7981096E-02 
      9688      3.0088524E+06  7.7612086E+06  4.8048338E-01  8.4994914E-01  4.7935364E-02 
      9689      3.0854704E+06  7.7612086E+06  4.8716886E-01  8.4135245E-01  4.7861540E-02 
      9690      3.1969472E+06  7.7612086E+06  4.9629128E-01  8.2875077E-01  4.7761186E-02 
      9691      3.3591424E+06  7.7612086E+06  5.0830323E-01  8.1026552E-01  4.7601536E-02 
      9692      3.5951314E+06  7.7612086E+06  5.2307042E-01  7.8317899E-01  4.7400358E-02 
      9693      3.9384879E+06  7.7612086E+06  5.3911462E-01  7.4378893E-01  4.7059015E-02 
      9694      4.4380610E+06  7.7612086E+06  5.5094855E-01  6.8735034E-01  4.6616649E-02 
      9695      5.1649241E+06  7.7612086E+06  5.4731970E-01  6.0998483E-01  4.5998066E-02 
      9696      6.2224873E+06  7.7612086E+06  5.0230591E-01  5.0581605E-01  4.5430331E-02 
      9697      7.7612086E+06  7.7612086E+06  3.7834008E-01  3.7834008E-01  4.3300561E-02 
      9698      1.0000000E+07  7.7612086E+06  0.0000000E+00  0.0000000E+00  4.2889808E-02 
      9701     -1.0000000E+07  1.0000000E+07  0.0000000E+00  0.0000000E+00  4.1923059E-02 
      9702     -7.7611093E+06  1.0000000E+07  0.0000000E+00  0.0000000E+00  4.2889843E-02 
      9703     -6.2223528E+06  1.0000000E+07  0.0000000E+00  0.0000000E+00  4.5625717E-02 
      9704     -5.1647882E+06  1.0000000E+07  0.0000000E+00  0.0000000E+00  4.5141058E-02 
      9705     -4.4379397E+06  1.0000000E+07  0.0000000E+00  0.0000000E+00  4.5521064E-02 
      9706     -3.9383875E+06  1.0000000E+07  0.0000000E+00  0.0000000E+00  4.5600234E-02 
      9707     -3.5950526E+06  1.0000000E+07  0.0000000E+00  0.0000000E+00  4.5706309E-02 
      9708     -3.3590836E+06  1.0000000E+07  0.0000000E+00  0.0000000E+00  4.5737947E-02 
      9709     -3.1969056E+06  1.0000000E+07  0.0000000E+00  0.0000000E+00  4.5786632E-02 
      9710     -3.0854431E+06  1.0000000E+07  0.0000000E+00  0.0000000E+00  4.5806047E-02 
      9711     -3.0088365E+06  1.0000000E+07  0.0000000E+00  0.0000000E+00  4.5825901E-02 
      9712     -2.9561859E+06  1.0000000E+07  0.0000000E+00  0.0000000E+00  4.5835078E-02 
      9713     -2.9200000E+06  1.0000000E+07  0.0000000E+00  0.0000000E+00  4.5846555E-02 
      9714     -2.8400000E+06  1.0000000E+07  0.0000000E+00  0.0000000E+00  4.5859458E-02 
      9715     -2.7600000E+06  1.0000000E+07  0.0000000E+00  0.0000000E+00  4.5876887E-02 
      9716     -2.6800000E+06  1.0000000E+07  0.0000000E+00  0.0000000E+00  4.5891809E-02 
      9717     -2.6000000E+06  1.0000000E+07  0.0000000E+00  0.0000000E+00  4.5907385E-02 
      9718     -2.5200000E+06  1.0000000E+07  0.0000000E+00  0.0000000E+00  4.5922253E-02 
      9719     -2.4400000E+06  1.0000000E+07  0.0000000E+00  0.0000000E+00  4.5937002E-02 
      9720     -2.3600000E+06  1.0000000E+07  0.0000000E+00  0.0000000E+00  4.5951381E-02 
      9721     -2.2800000E+06  1.0000000E+07  0.0000000E+00  0.0000000E+00  4.5965490E-02 
      9722     -2.2000000E+06  1.0000000E+07  0.0000000E+00  0.0000000E+00  4.5979276E-02 
      9723     -2.1200000E+06  1.0000000E+07  0.0000000E+00  0.0000000E+00  4.5992746E-02 
      9724     -2.0400000E+06  1.0000000E+07  0.0000000E+00  0.0000000E+00  4.6005881E-02 
      9725     -1.9600000E+06  1.0000000E+07  0.0000000E+00  0.0000000E+00  4.6018671E-02 
      9726     -1.8800000E+06  1.0000000E+07  0.0000000E+00  0.0000000E+00  4.6031100E-02 
      9727     -1.8000000E+06  1.0000000E+07  0.0000000E+00  0.0000000E+00  4.6043154E-02 
      9728     -1.7200000E+06  1.0000000E+07  0.0000000E+00  0.0000000E+00  4.6054818E-02 
      9729     -1.6400000E+06  1.0000000E+07  0.0000000E+00  0.0000000E+00  4.6066076E-02 
      9730     -1.5600000E+06  1.0000000E+07  0.0000000E+00  0.0000000E+00  4.6076915E-02 
      9731     -1.4800000E+06  1.0000000E+07  0.0000000E+00  0.0000000E+00  4.6087318E-02 
      9732     -1.4000000E+06  1.0000000E+07  0.0000000E+00  0.0000000E+00  4.6097272E-02 
      9733     -1.3200000E+06  1.0000000E+07  0.0000000E+00  0.0000000E+00  4.6106761E-02 
      9734     -1.2400000E+06  1.0000000E+07  0.0000000E+00  0.0000000E+00  4.6115772E-02 
      9735     -1.1600000E+06  1.0000000E+07  0.0000000E+00  0.0000000E+00  4.6124291E-02 
      9736     -1.0800000E+06  1.0000000E+07  0.0000000E+00  0.0000000E+00  4.6132306E-02 
      9737     -1.0000000E+06  1.0000000E+07  0.0000000E+00  0.0000000E+00  4.6139803E-02 
      9738     -9.2000000E+05  1.0000000E+07  0.0000000E+00  0.0000000E+00  4.6146771E-02 
      9739     -8.4000000E+05  1.0000000E+07  0.0000000E+00  0.0000000E+00  4.6153199E-02 
      9740     -7.6000000E+05  1.0000000E+07  0.0000000E+00  0.0000000E+00  4.6159077E-02 
      9741     -6.8000000E+05  1.0000000E+07  0.0000000E+00  0.0000000E+00  4.6164396E-02 
      9742     -6.0000000E+05  1.0000000E+07  0.0000000E+00  0.0000000E+00  4.6169145E-02 
      9743     -5.2000000E+05  1.0000000E+07  0.0000000E+00  0.0000000E+00  4.6173319E-02 
      9744     -4.4000000E+05  1.0000000E+07  0.0000000E+00  0.0000000E+00  4.6176909E-02 
      9745     -3.6000000E+05  1.0000000E+07  0.0000000E+00  0.0000000E+00  4.6179910E-02 
      9746     -2.8000000E+05  1.0000000E+07  0.0000000E+00  0.0000000E+00  4.6182317E-02 
      9747     -2.0000000E+05  1.0000000E+07  0.0000000E+00  0.0000000E+00  4.6184126E-02 
      9748     -1.2000000E+05  1.0000000E+07  0.0000000E+00  0.0000000E+00  4.6185334E-02 
      9749     -4.0000000E+04  1.0000000E+07  0.0000000E+00  0.0000000E+00  4.6185938E-02 
      9750      4.0000000E+04  1.0000000E+07  0.0000000E+00  0.0000000E+00  4.6185938E-02 
      9751      1.2000000E+05  1.0000000E+07  0.0000000E+00  0.0000000E+00  4.6185334E-02 
      9752      2.0000000E+05  1.0000000E+07  0.0000000E+00  0.0000000E+00  4.6184126E-02 
      9753      2.8000000E+05  1.0000000E+07  0.0000000E+00  0.0000000E+00  4.6182317E-02 
      9754      3.6000000E+05  1.0000000E+07  0.0000000E+00  0.0000000E+00  4.6179910E-02 
      9755      4.4000000E+05  1.0000000E+07  0.0000000E+00  0.0000000E+00  4.6176909E-02 
      9756      5.2000000E+05  1.0000000E+07  0.0000000E+00  0.0000000E+00  4.6173319E-02 
      9757      6.0000000E+05  1.0000000E+07  0.0000000E+00  0.0000000E+00  4.6169145E-02 
      9758      6.8000000E+05  1.0000000E+07  0.0000000E+00  0.0000000E+00  4.6164395E-02 
      9759      7.6000000E+05  1.0000000E+07  0.0000000E+00  0.0000000E+00  4.6159077E-02 
      9760      8.4000000E+05  1.0000000E+07  0.0000000E+00  0.0000000E+00  4.6153199E-02 
      9761      9.2000000E+05  1.0000000E+07  0.0000000E+00  0.0000000E+00  4.6146770E-02 
      9762      1.0000000E+06  1.0000000E+07  0.0000000E+00  0.0000000E+00  4.6139802E-02 
      9763      1.0800000E+06  1.0000000E+07  0.0000000E+00  0.0000000E+00  4.6132305E-02 
      9764      1.1600000E+06  1.0000000E+07  0.0000000E+00  0.0000000E+00  4.6124290E-02 
      9765      1.2400000E+06  1.0000000E+07  0.0000000E+00  0.0000000E+00  4.6115771E-02 
      9766      1.3200000E+06  1.0000000E+07  0.0000000E+00  0.0000000E+00  4.6106760E-02 
      9767      1.4000000E+06  1.0000000E+07  0.0000000E+00  0.0000000E+00  4.6097271E-02 
      9768      1.4800000E+06  1.0000000E+07  0.0000000E+00  0.0000000E+00  4.6087317E-02 
      9769      1.5600000E+06  1.0000000E+07  0.0000000E+00  0.0000000E+00  4.6076913E-02 
      9770      1.6400000E+06  1.0000000E+07  0.0000000E+00  0.0000000E+00  4.6066075E-02 
      9771      1.7200000E+06  1.0000000E+07  0.0000000E+00  0.0000000E+00  4.6054816E-02 
      9772      1.8000000E+06  1.0000000E+07  0.0000000E+00  0.0000000E+00  4.6043152E-02 
      9773      1.8800000E+06  1.0000000E+07  0.0000000E+00  0.0000000E+00  4.6031098E-02 
      9774      1.9600000E+06  1.0000000E+07  0.0000000E+00  0.0000000E+00  4.6018669E-02 
      9775      2.0400000E+06  1.0000000E+07  0.0000000E+00  0.0000000E+00  4.6005879E-02 
      9776      2.1200000E+06  1.0000000E+07  0.0000000E+00  0.0000000E+00  4.5992744E-02 
      9777      2.2000000E+06  1.0000000E+07  0.0000000E+00  0.0000000E+00  4.5979273E-02 
      9778      2.2800000E+06  1.0000000E+07  0.0000000E+00  0.0000000E+00  4.5965487E-02 
      9779      2.3600000E+06  1.0000000E+07  0.0000000E+00  0.0000000E+00  4.5951379E-02 
      9780      2.4400000E+06  1.0000000E+07  0.0000000E+00  0.0000000E+00  4.5936999E-02 
      9781      2.5200000E+06  1.0000000E+07  0.0000000E+00  0.0000000E+00  4.5922250E-02 
      9782      2.6000000E+06  1.0000000E+07  0.0000000E+00  0.0000000E+00  4.5907382E-02 
      9783      2.6800000E+06  1.0000000E+07  0.0000000E+00  0.0000000E+00  4.5891806E-02 
      9784      2.7600000E+06  1.0000000E+07  0.0000000E+00  0.0000000E+00  4.5876883E-02 
      9785      2.8400000E+06  1.0000000E+07  0.0000000E+00  0.0000000E+00  4.5859455E-02 
      9786      2.9200000E+06  1.0000000E+07  0.0000000E+00  0.0000000E+00  4.5846552E-02 
      9787      2.9561929E+06  1.0000000E+07  0.0000000E+00  0.0000000E+00  4.5835073E-02 
      9788      3.0088524E+06  1.0000000E+07  0.0000000E+00  0.0000000E+00  4.5825893E-02 
      9789      3.0854704E+06  1.0000000E+07  0.0000000E+00  0.0000000E+00  4.5806038E-02 
      9790      3.1969472E+06  1.0000000E+07  0.0000000E+00  0.0000000E+00  4.5786618E-02 
      9791      3.3591424E+06  1.0000000E+07  0.0000000E+00  0.0000000E+00  4.5737930E-02 
      9792      3.5951314E+06  1.0000000E+07  0.0000000E+00  0.0000000E+00  4.5706284E-02 
      9793      3.9384879E+06  1.0000000E+07  0.0000000E+00  0.0000000E+00  4.5600206E-02 
      9794      4.4380610E+06  1.0000000E+07  0.0000000E+00  0.0000000E+00  4.5521028E-02 
      9795      5.1649241E+06  1.0000000E+07  0.0000000E+00  0.0000000E+00  4.5141028E-02 
      9796      6.2224873E+06  1.0000000E+07  0.0000000E+00  0.0000000E+00  4.5625625E-02 
      9797      7.7612086E+06  1.0000000E+07  0.0000000E+00  0.0000000E+00  4.2889808E-02 
      9798      1.0000000E+07  1.0000000E+07  0.0000000E+00  0.0000000E+00  4.1922985E-02 

 MAXIMUM         1.0000E+07  1.0000E+07   11.49       11.49       2.344    
 AT NODE              1598        9716        4863        6249        6155

 MINIMUM        -1.0000E+07 -1.0000E+07  -11.49      -11.49      -36.55    
 AT NODE              1501          16        4836        3549        4849


          THE ANALYSIS HAS BEEN COMPLETED



                              ANALYSIS COMPLETE
                              WITH      3 WARNING MESSAGES ON THE DAT FILE
                              AND       1 WARNING MESSAGES ON THE MSG FILE



     JOB TIME SUMMARY
       USER TIME (SEC)      =   3623.9    
       SYSTEM TIME (SEC)    =   50.770    
       TOTAL CPU TIME (SEC) =   3674.7    
       WALLCLOCK TIME (SEC) =       3666
