 Abaqus/Standard 6.14-4                  DATE 16-Jun-2023 TIME 15:24:29
 SUMMARY OF JOB INFORMATION:
 STEP  INC ATT SEVERE EQUIL TOTAL  TOTAL      STEP       INC OF       DOF    IF
               DISCON ITERS ITERS  TIME/    TIME/LPF    TIME/LPF    MONITOR RIKS
               ITERS               FREQ
   1     1   1     0     1     1  3.00e+13   3.00e+13   3.000e+13 
   1     2   1U    0     1     1  3.00e+13   3.00e+13   3.000e+13 
   1     2   2     0     1     1  3.05e+13   3.05e+13   4.806e+11 
   1     3   1     0     1     1  3.10e+13   3.10e+13   4.806e+11 
   1     4   1     0     1     1  3.14e+13   3.14e+13   4.806e+11 
   1     5   1     0     1     1  3.19e+13   3.19e+13   4.806e+11 
   1     6   1     0     1     1  3.24e+13   3.24e+13   4.806e+11 
   1     7   1     0     1     1  3.29e+13   3.29e+13   4.806e+11 
   1     8   1     0     1     1  3.34e+13   3.34e+13   4.806e+11 
   1     9   1     0     1     1  3.38e+13   3.38e+13   4.806e+11 
   1    10   1     0     1     1  3.43e+13   3.43e+13   4.806e+11 
   1    11   1     0     2     2  3.53e+13   3.53e+13   9.612e+11 
   1    12   1     0     2     2  3.67e+13   3.67e+13   1.442e+12 
   1    13   1     0     2     2  3.89e+13   3.89e+13   2.163e+12 
   1    14   1     0     2     2  4.21e+13   4.21e+13   3.244e+12 
   1    15   1     0     2     2  4.70e+13   4.70e+13   4.866e+12 
   1    16   1     0     2     2  5.43e+13   5.43e+13   7.299e+12 
   1    17   1     0     2     2  6.52e+13   6.52e+13   1.095e+13 
   1    18   1     0     2     2  8.17e+13   8.17e+13   1.642e+13 
   1    19   1     0     2     2  1.06e+14   1.06e+14   2.463e+13 
   1    20   1     0     2     2  1.43e+14   1.43e+14   3.695e+13 
   1    21   1     0     2     2  1.99e+14   1.99e+14   5.543e+13 
   1    22   1     0     2     2  2.82e+14   2.82e+14   8.314e+13 
   1    23   1     0     2     2  4.07e+14   4.07e+14   1.247e+14 
   1    24   1     0     2     2  5.94e+14   5.94e+14   1.871e+14 
   1    25   1     0     2     2  8.74e+14   8.74e+14   2.806e+14 
   1    26   1     0     2     2  1.30e+15   1.30e+15   4.209e+14 
   1    27   1     0     2     2  1.35e+15   1.35e+15   5.490e+13 
   2     1   1U    0     1     1  1.35e+15   0.00       1.000e+12 
   2     1   2     0     1     1  1.35e+15   4.81e+11   4.806e+11 
   2     2   1     0     1     1  1.35e+15   9.61e+11   4.806e+11 
   2     3   1     0     1     1  1.35e+15   1.44e+12   4.806e+11 
   2     4   1     0     1     1  1.35e+15   1.92e+12   4.806e+11 
   2     5   1     0     1     1  1.35e+15   2.40e+12   4.806e+11 
   2     6   1     0     1     1  1.35e+15   2.88e+12   4.806e+11 
   2     7   1     0     1     1  1.35e+15   3.36e+12   4.806e+11 
   2     8   1     0     1     1  1.35e+15   3.84e+12   4.806e+11 
   2     9   1     0     1     1  1.35e+15   4.33e+12   4.806e+11 
   2    10   1     0     1     1  1.35e+15   4.81e+12   4.806e+11 
   2    11   1     0     1     1  1.36e+15   5.29e+12   4.806e+11 
   2    12   1     0     1     1  1.36e+15   5.77e+12   4.806e+11 
   2    13   1     0     1     1  1.36e+15   6.25e+12   4.806e+11 
   2    14   1     0     1     1  1.36e+15   6.73e+12   4.806e+11 
   2    15   1     0     1     1  1.36e+15   7.21e+12   4.806e+11 
   2    16   1     0     1     1  1.36e+15   7.69e+12   4.806e+11 
   2    17   1     0     1     1  1.36e+15   8.17e+12   4.806e+11 
   2    18   1     0     1     1  1.36e+15   8.65e+12   4.806e+11 
   2    19   1     0     1     1  1.36e+15   9.13e+12   4.806e+11 
   2    20   1     0     1     1  1.36e+15   9.61e+12   4.806e+11 
   2    21   1     0     1     1  1.36e+15   1.01e+13   4.806e+11 
   2    22   1     0     1     1  1.36e+15   1.06e+13   4.806e+11 
   2    23   1     0     1     1  1.36e+15   1.11e+13   4.806e+11 
   2    24   1     0     1     1  1.36e+15   1.15e+13   4.806e+11 
   2    25   1     0     1     1  1.36e+15   1.20e+13   4.806e+11 
   2    26   1     0     1     1  1.36e+15   1.25e+13   4.806e+11 
   2    27   1     0     1     1  1.36e+15   1.30e+13   4.806e+11 
   2    28   1     0     1     1  1.36e+15   1.35e+13   4.806e+11 
   2    29   1     0     1     1  1.36e+15   1.39e+13   4.806e+11 
   2    30   1     0     1     1  1.36e+15   1.44e+13   4.806e+11 
   2    31   1     0     1     1  1.36e+15   1.49e+13   4.806e+11 
   2    32   1     0     1     1  1.37e+15   1.54e+13   4.806e+11 
   2    33   1     0     1     1  1.37e+15   1.59e+13   4.806e+11 
   2    34   1     0     1     1  1.37e+15   1.63e+13   4.806e+11 
   2    35   1     0     1     1  1.37e+15   1.68e+13   4.806e+11 
   2    36   1     0     1     1  1.37e+15   1.73e+13   4.806e+11 
   2    37   1     0     1     1  1.37e+15   1.78e+13   4.806e+11 
   2    38   1     0     1     1  1.37e+15   1.83e+13   4.806e+11 
   2    39   1     0     1     1  1.37e+15   1.87e+13   4.806e+11 
   2    40   1     0     1     1  1.37e+15   1.92e+13   4.806e+11 
   2    41   1     0     1     1  1.37e+15   1.97e+13   4.806e+11 
   2    42   1     0     1     1  1.37e+15   2.00e+13   2.957e+11 
   3     1   1U    0     1     1  1.37e+15   0.00       1.000e+12 
   3     1   2     0     1     1  1.37e+15   4.81e+11   4.806e+11 
   3     2   1     0     1     1  1.37e+15   9.61e+11   4.806e+11 
   3     3   1     0     1     1  1.37e+15   1.44e+12   4.806e+11 
   3     4   1     0     1     1  1.37e+15   1.92e+12   4.806e+11 
   3     5   1     0     1     1  1.37e+15   2.40e+12   4.806e+11 
   3     6   1     0     1     1  1.37e+15   2.88e+12   4.806e+11 
   3     7   1     0     1     1  1.37e+15   3.36e+12   4.806e+11 
   3     8   1     0     1     1  1.37e+15   3.84e+12   4.806e+11 
   3     9   1     0     1     1  1.37e+15   4.33e+12   4.806e+11 
   3    10   1     0     1     1  1.37e+15   4.81e+12   4.806e+11 
   3    11   1     0     1     1  1.38e+15   5.29e+12   4.806e+11 
   3    12   1     0     1     1  1.38e+15   5.77e+12   4.806e+11 
   3    13   1     0     1     1  1.38e+15   6.25e+12   4.806e+11 
   3    14   1     0     1     1  1.38e+15   6.73e+12   4.806e+11 
   3    15   1     0     1     1  1.38e+15   7.21e+12   4.806e+11 
   3    16   1     0     1     1  1.38e+15   7.69e+12   4.806e+11 
   3    17   1     0     1     1  1.38e+15   8.17e+12   4.806e+11 
   3    18   1     0     1     1  1.38e+15   8.65e+12   4.806e+11 
   3    19   1     0     1     1  1.38e+15   9.13e+12   4.806e+11 
   3    20   1     0     1     1  1.38e+15   9.61e+12   4.806e+11 
   3    21   1     0     1     1  1.38e+15   1.01e+13   4.806e+11 
   3    22   1     0     1     1  1.38e+15   1.06e+13   4.806e+11 
   3    23   1     0     1     1  1.38e+15   1.11e+13   4.806e+11 
   3    24   1     0     1     1  1.38e+15   1.15e+13   4.806e+11 
   3    25   1     0     1     1  1.38e+15   1.20e+13   4.806e+11 
   3    26   1     0     1     1  1.38e+15   1.25e+13   4.806e+11 
   3    27   1     0     1     1  1.38e+15   1.30e+13   4.806e+11 
   3    28   1     0     1     1  1.38e+15   1.35e+13   4.806e+11 
   3    29   1     0     1     1  1.38e+15   1.39e+13   4.806e+11 
   3    30   1     0     1     1  1.38e+15   1.44e+13   4.806e+11 
   3    31   1     0     1     1  1.38e+15   1.49e+13   4.806e+11 
   3    32   1     0     1     1  1.39e+15   1.54e+13   4.806e+11 
   3    33   1     0     1     1  1.39e+15   1.59e+13   4.806e+11 
   3    34   1     0     1     1  1.39e+15   1.63e+13   4.806e+11 
   3    35   1     0     1     1  1.39e+15   1.68e+13   4.806e+11 
   3    36   1     0     1     1  1.39e+15   1.73e+13   4.806e+11 
   3    37   1     0     1     1  1.39e+15   1.78e+13   4.806e+11 
   3    38   1     0     1     1  1.39e+15   1.83e+13   4.806e+11 
   3    39   1     0     1     1  1.39e+15   1.87e+13   4.806e+11 
   3    40   1     0     1     1  1.39e+15   1.92e+13   4.806e+11 
   3    41   1     0     1     1  1.39e+15   1.97e+13   4.806e+11 
   3    42   1     0     1     1  1.39e+15   2.00e+13   2.957e+11 
   4     1   1U    0     1     1  1.39e+15   0.00       1.000e+12 
   4     1   2     0     1     1  1.39e+15   4.81e+11   4.806e+11 
   4     2   1     0     1     1  1.39e+15   9.61e+11   4.806e+11 
   4     3   1     0     1     1  1.39e+15   1.44e+12   4.806e+11 
   4     4   1     0     1     1  1.39e+15   1.92e+12   4.806e+11 
   4     5   1     0     1     1  1.39e+15   2.40e+12   4.806e+11 
   4     6   1     0     1     1  1.39e+15   2.88e+12   4.806e+11 
   4     7   1     0     1     1  1.39e+15   3.36e+12   4.806e+11 
   4     8   1     0     1     1  1.39e+15   3.84e+12   4.806e+11 
   4     9   1     0     1     1  1.39e+15   4.33e+12   4.806e+11 
   4    10   1     0     1     1  1.39e+15   4.81e+12   4.806e+11 
   4    11   1     0     1     1  1.40e+15   5.29e+12   4.806e+11 
   4    12   1     0     1     1  1.40e+15   5.77e+12   4.806e+11 
   4    13   1     0     1     1  1.40e+15   6.25e+12   4.806e+11 
   4    14   1     0     1     1  1.40e+15   6.73e+12   4.806e+11 
   4    15   1     0     1     1  1.40e+15   7.21e+12   4.806e+11 
   4    16   1     0     1     1  1.40e+15   7.69e+12   4.806e+11 
   4    17   1     0     1     1  1.40e+15   8.17e+12   4.806e+11 
   4    18   1     0     1     1  1.40e+15   8.65e+12   4.806e+11 
   4    19   1     0     1     1  1.40e+15   9.13e+12   4.806e+11 
   4    20   1     0     1     1  1.40e+15   9.61e+12   4.806e+11 
   4    21   1     0     1     1  1.40e+15   1.01e+13   4.806e+11 
   4    22   1     0     1     1  1.40e+15   1.06e+13   4.806e+11 
   4    23   1     0     1     1  1.40e+15   1.11e+13   4.806e+11 
   4    24   1     0     1     1  1.40e+15   1.15e+13   4.806e+11 
   4    25   1     0     1     1  1.40e+15   1.20e+13   4.806e+11 
   4    26   1     0     1     1  1.40e+15   1.25e+13   4.806e+11 
   4    27   1     0     1     1  1.40e+15   1.30e+13   4.806e+11 
   4    28   1     0     1     1  1.40e+15   1.35e+13   4.806e+11 
   4    29   1     0     1     1  1.40e+15   1.39e+13   4.806e+11 
   4    30   1     0     1     1  1.40e+15   1.44e+13   4.806e+11 
   4    31   1     0     1     1  1.40e+15   1.49e+13   4.806e+11 
   4    32   1     0     1     1  1.41e+15   1.54e+13   4.806e+11 
   4    33   1     0     1     1  1.41e+15   1.59e+13   4.806e+11 
   4    34   1     0     1     1  1.41e+15   1.63e+13   4.806e+11 
   4    35   1     0     1     1  1.41e+15   1.68e+13   4.806e+11 
   4    36   1     0     1     1  1.41e+15   1.73e+13   4.806e+11 
   4    37   1     0     1     1  1.41e+15   1.78e+13   4.806e+11 
   4    38   1     0     1     1  1.41e+15   1.83e+13   4.806e+11 
   4    39   1     0     1     1  1.41e+15   1.87e+13   4.806e+11 
   4    40   1     0     1     1  1.41e+15   1.92e+13   4.806e+11 
   4    41   1     0     1     1  1.41e+15   1.97e+13   4.806e+11 
   4    42   1     0     1     1  1.41e+15   2.00e+13   2.957e+11 
   5     1   1U    0     1     1  1.41e+15   0.00       1.000e+12 
   5     1   2     0     1     1  1.41e+15   4.81e+11   4.806e+11 
   5     2   1     0     1     1  1.41e+15   9.61e+11   4.806e+11 
   5     3   1     0     1     1  1.41e+15   1.44e+12   4.806e+11 
   5     4   1     0     1     1  1.41e+15   1.92e+12   4.806e+11 
   5     5   1     0     1     1  1.41e+15   2.40e+12   4.806e+11 
   5     6   1     0     1     1  1.41e+15   2.88e+12   4.806e+11 
   5     7   1     0     1     1  1.41e+15   3.36e+12   4.806e+11 
   5     8   1     0     1     1  1.41e+15   3.84e+12   4.806e+11 
   5     9   1     0     1     1  1.41e+15   4.33e+12   4.806e+11 
                          
 THE ANALYSIS HAS NOT BEEN COMPLETED
