1

   Abaqus 6.14-4                                  Date 21-May-2023   Time 16:27:39
   For use at DELFT UNIVERSITY OF TECHNOLOGY under license from Dassault Systemes or its subsidiary.



                         The Abaqus Software is a product of:

                           Dassault Systemes SIMULIA Corp.
                           1301 Atwood Avenue, Suite 101W
                              Johnston, RI 02919, USA
 


                   Available for internal use at DELFT UNIVERSITY OF TECHNOLOGY. 
                   The Abaqus Online Support System is accessible
                   through the "My Support" section of the SIMULIA
                   Home Page at http://www.simulia.com.

                   Support policies for academic licenses are described
                   on the SIMULIA web site at
                   http://www.3ds.com/products/simulia/academics/
 
                          On machine hipparchos 
                          you are authorized to run
                          Abaqus/Standard until 30-Sep-2023

                          Your site id is: 200000000057591 


 
                    For assistance or any other information you may
                    obtain contact information for your local office
                    from the world wide web at:

                      http://www.3ds.com/products/simulia/locations/

 
                * * * * * * * * * * * * * * * * * * * * * * * * * * * * * * 
                *                                                         * 
                *                   *****************                     * 
                *                   *  N O T I C E  *                     * 
                *                   *****************                     * 
                *                                                         * 
                *                                                         * 
                *                    Abaqus 6.14-4                        * 
                *                                                         * 
                *          BUILD ID: 2015_06_11-22.39.29 135079           * 
                *                                                         * 
                *                                                         * 
                *  Please make sure you are using release 6.14 manuals    * 
                *  plus the notes accompanying this release.              * 
                *                                                         * 
                *                                                         * 
                *                                                         * 
                *                                                         * 
                *                                                         * 
                *   This program may not be used for commercial purposes  * 
                *           without payment of a commercial fee.          * 
                *                                                         * 
                * * * * * * * * * * * * * * * * * * * * * * * * * * * * * * 


 



     PROCESSING PART, INSTANCE, AND ASSEMBLY INFORMATION
   *******************************************************


     END PROCESSING PART, INSTANCE, AND ASSEMBLY INFORMATION
   ***********************************************************




     OPTIONS BEING PROCESSED
   ***************************


  *HEADING
          3D HALFSPACE, 97x97x10 elements, 73x73 load elements of 80 km                                                                                                                                                                                                   
  *NODE,NSET=N1
  *NODE,NSET=N13
  *NODE,NSET=N86
  *NODE,NSET=N98
  *NODE,NSET=N1201
  *NODE,NSET=N1213
  *NODE,NSET=N1286
  *NODE,NSET=N1298
  *NODE,NSET=N8501
  *NODE,NSET=N8513
  *NODE,NSET=N8586
  *NODE,NSET=N8598
  *NODE,NSET=N9701
  *NODE,NSET=N9713
  *NODE,NSET=N9786
  *NODE,NSET=N9798
  *NFILL,BIAS=1.4550,NSET=LX1
  *NFILL,BIAS=1.4550,NSET=LX2
  *NFILL,BIAS=1.4550,NSET=LX3
  *NFILL,BIAS=1.4550,NSET=LX4
  *NGEN,NSET=CX1
  *NGEN,NSET=CX2
  *NGEN,NSET=CX3
  *NGEN,NSET=CX4
  *NFILL,BIAS=0.6873,NSET=UX1
  *NFILL,BIAS=0.6873,NSET=UX2
  *NFILL,BIAS=0.6873,NSET=UX3
  *NFILL,BIAS=0.6873,NSET=UX4
  *NSET,NSET=X1
  *NSET,NSET=X2
  *NSET,NSET=X3
  *NSET,NSET=X4
  *NFILL,BIAS=1.4550,NSET=LY
  *NFILL,NSET=CY
  *NFILL,BIAS=0.6873,NSET=UY
  *NSET,NSET=UZPLANE
  *NCOPY,OLD SET=UZPLANE,CHANGE NUMBER=10000,SHIFT,NEW SET=Z1
  *NCOPY,OLD SET=UZPLANE,CHANGE NUMBER=20000,SHIFT,NEW SET=Z2
  *NCOPY,OLD SET=UZPLANE,CHANGE NUMBER=30000,SHIFT,NEW SET=Z3
  *NCOPY,OLD SET=UZPLANE,CHANGE NUMBER=40000,SHIFT,NEW SET=Z4
  *NCOPY,OLD SET=UZPLANE,CHANGE NUMBER=50000,SHIFT,NEW SET=Z5
  *NCOPY,OLD SET=UZPLANE,CHANGE NUMBER=60000,SHIFT,NEW SET=Z6
  *NCOPY,OLD SET=UZPLANE,CHANGE NUMBER=70000,SHIFT,NEW SET=Z7
  *NCOPY,OLD SET=UZPLANE,CHANGE NUMBER=80000,SHIFT,NEW SET=Z8
  *NCOPY,OLD SET=UZPLANE,CHANGE NUMBER=90000,SHIFT,NEW SET=Z9
  *NCOPY,OLD SET=UZPLANE,CHANGE NUMBER=100000,SHIFT,NEW SET=Z10
  *NSET,NSET=XNEG,GENERATE
  *NSET,NSET=XPOS,GENERATE
  *NSET,NSET=YNEG,GENERATE
  *NSET,NSET=YPOS,GENERATE
  *ELEMENT,TYPE=C3D8H
  *ELGEN
  *INCLUDE, INPUT=surface.el

  *** INPUT DATA IS READ FROM FILE surface.el                                                                                                                                                                                                                                                     

  *ELSET, ELSET=SURF1
  *ELCOPY, OLD SET=SURF1, NEW SET=SURF2,
  *ELCOPY, OLD SET=SURF1, NEW SET=LI,
  *ELCOPY, OLD SET=SURF1, NEW SET=UM1_1,
  *ELCOPY, OLD SET=SURF1, NEW SET=UM1_2,
  *ELSET, ELSET=UC
  *ELGEN, ELSET=UM1_3
  *ELGEN, ELSET=UM1_4
  *ELSET, ELSET=UM1
  *ELGEN, ELSET=UM2
  *ELGEN, ELSET=TZ
  *ELGEN, ELSET=LM
  *INCLUDE, INPUT=load

  *** INPUT DATA IS READ FROM FILE load                                                                                                                                                                                                                                                           

  *INCLUDE, INPUT=load

  *** INPUT DATA IS READ FROM FILE load                                                                                                                                                                                                                                                           

  *MATERIAL,NAME=MATCR
  *DENSITY
  *ELASTIC
  *MATERIAL,NAME=MATLI
  *DENSITY
  *ELASTIC
  *MATERIAL,NAME=MATUM1
  *DENSITY
  *ELASTIC
  *CREEP, LAW=STRAIN
  *MATERIAL,NAME=MATUM2
  *DENSITY
  *ELASTIC
  *CREEP, LAW=STRAIN
  *MATERIAL,NAME=MATTZ
  *DENSITY
  *ELASTIC
  *CREEP, LAW=STRAIN
  *MATERIAL,NAME=MATLM
  *DENSITY
  *ELASTIC
  *CREEP, LAW=STRAIN
  *SOLID SECTION,ELSET=UC,MATERIAL=MATCR
  *SOLID SECTION,ELSET=LI,MATERIAL=MATLI
  *SOLID SECTION,ELSET=UM1,MATERIAL=MATUM1
  *SOLID SECTION,ELSET=UM2,MATERIAL=MATUM2
  *SOLID SECTION,ELSET=TZ,MATERIAL=MATTZ
  *SOLID SECTION,ELSET=LM,MATERIAL=MATLM
  *BOUNDARY
  *BOUNDARY
  *SOLID SECTION,ELSET=UC,MATERIAL=MATCR
  *SOLID SECTION,ELSET=LI,MATERIAL=MATLI
  *SOLID SECTION,ELSET=UM1,MATERIAL=MATUM1
  *SOLID SECTION,ELSET=UM2,MATERIAL=MATUM2
  *SOLID SECTION,ELSET=TZ,MATERIAL=MATTZ
  *SOLID SECTION,ELSET=LM,MATERIAL=MATLM
  *FOUNDATION
  *OUTPUT, DIAGNOSTICS=NO
  *OUTPUT, FIELD, FREQUENCY=0
  *OUTPUT, HISTORY, FREQUENCY=0
  *OUTPUT, DIAGNOSTICS=NO
  *OUTPUT, FIELD, FREQUENCY=0
  *OUTPUT, HISTORY, FREQUENCY=0
  *OUTPUT, DIAGNOSTICS=NO
  *OUTPUT, FIELD, FREQUENCY=0
  *OUTPUT, HISTORY, FREQUENCY=0
  *OUTPUT, DIAGNOSTICS=NO
  *OUTPUT, FIELD, FREQUENCY=0
  *OUTPUT, HISTORY, FREQUENCY=0
  *OUTPUT, DIAGNOSTICS=NO
  *OUTPUT, FIELD, FREQUENCY=0
  *OUTPUT, HISTORY, FREQUENCY=0
  *OUTPUT, DIAGNOSTICS=NO
  *OUTPUT, FIELD, FREQUENCY=0
  *OUTPUT, HISTORY, FREQUENCY=0
  *STEP, INC=200, AMPLITUDE=STEP
  *OUTPUT, DIAGNOSTICS=NO
  *OUTPUT, FIELD, FREQUENCY=0
  *OUTPUT, HISTORY, FREQUENCY=0
  *STEP, INC=200, AMPLITUDE=STEP
  *OUTPUT, DIAGNOSTICS=NO
  *OUTPUT, FIELD, FREQUENCY=0
  *OUTPUT, HISTORY, FREQUENCY=0
  *STEP, INC=200, AMPLITUDE=STEP
  *STEP, INC=200, AMPLITUDE=STEP
  *STEP, INC=200, AMPLITUDE=STEP
  *VISCO, CETOL=1E-2
  *DLOAD, OP=NEW
  *OUTPUT, DIAGNOSTICS=NO
  *OUTPUT, FIELD, FREQUENCY=0
  *OUTPUT, HISTORY, FREQUENCY=0
  *NODE PRINT,FREQ=100,NSET=UZPLANE
  *END STEP
  *STEP, INC=200, AMPLITUDE=STEP
  *VISCO, CETOL=1E-2
  *DLOAD, OP=NEW
  *OUTPUT, DIAGNOSTICS=NO
  *OUTPUT, FIELD, FREQUENCY=0
  *OUTPUT, HISTORY, FREQUENCY=0
  *NODE PRINT,FREQ=100,NSET=UZPLANE
  *END STEP
  *BOUNDARY
  *STEP, INC=200, AMPLITUDE=STEP
  *VISCO, CETOL=1E-2
  *END STEP
  *STEP, INC=200, AMPLITUDE=STEP
  *VISCO, CETOL=1E-2
  *END STEP
  
                               E L E M E N T   Q U A L I T Y  C H E C K S        
  
  
 ***NOTES: DISTORTED ISOPARAMETRIC ELEMENTS: ANGLE BETWEEN ISOPARAMETRIC LINES 
           IS LESS THAN 45 DEGREES OR GREATER THAN 135 DEGREES.
  
           TETRAHEDRAL QUALITY MEASURE: VOLUME OF TETRAHEDRON DIVIDED BY THE 
           VOLUME OF EQUILATERAL TETRAHEDRON WITH SAME CIRCUMSPHERE RADIUS; 
           0 FOR DEGENERATE TETRAHEDRON AND 1 FOR EQUILATERIAL TETRAHEDRON. IT 
           IS RECOMMENDED THAT THE TETRAHEDRAL QUALITY MEASURE BE GREATER THAN 
           0.02, THE MIN INTERIOR (DIHEDRAL) ANGLE BE GREATER THAN 10 DEGREES, 
           AND THE MAX INTERIOR (DIHEDRAL) ANGLE BE LESS THAN 160 DEGREES. 
  
           MODIFIED TETRAHEDRAL QUALITY MEASURE: ANGLES BETWEEN THE TWO LINE 
           SEGMENTS ON EACH EDGE; THE EDGES OF MODIFIED TETRAHEDRAL SHOULD BE 
           AS STRAIGHT AS POSSIBLE. IT IS RECOMMENDED THAT THE ANGLE BETWEEN 
           THE TWO LINE SEGMENTS ON EACH EDGE IS BETWEEN 160 AND 180 DEGREES. 
  
           TRIANGULAR QUALITY MEASURE: AREA OF TRIANGLE DIVIDED BY THE AREA OF 
           EQUILATERAL TRIANGLE WITH SAME CIRCUMCIRCLE RADIUS; 0 FOR DEGENERATE 
           TRIANGLE AND 1 FOR EQUILATERAL TRIANGLE. IT IS RECOMMENDED THAT THE
           TRIANGULAR QUALITY MEASURE BE GREATER THAN 0.01, THE MIN INTERIOR 
           ANGLE BE GREATER THAN 10 DEGREES, AND THE MAX INTERIOR ANGLE BE LESS 
           THAN 160 DEGREES. 
  
           NODAL ADJUSTMENTS ARISING FROM CONTACT INTERACTIONS AND/OR TIE 
           CONSTRAINTS CAN CAUSE SEVERE ELEMENT DISTORTION. IT MAY BE NECESSARY 
           TO REMESH IN ORDER TO REDUCE THE AMOUNT OF ADJUSTMENT. 

 ***WARNING: The aspect ratio for 760 elements exceeds 100 to 1. The elements 
             have been identified in element set WarnElemAspectRatio.
  
 --------------------------------------------------------------------------------
 Elements with large aspect ratio
  
  Element  Adjusted nodes 
 --------- -------------- 
     90011       NO       
     90012       NO       
     90086       NO       
     90087       NO       
     90111       NO       
     90112       NO       
     90186       NO       
     90187       NO       
     90211       NO       
     90212       NO       
     90286       NO       
     90287       NO       
     90311       NO       
     90312       NO       
     90386       NO       
     90387       NO       
     90411       NO       
     90412       NO       
     90486       NO       
     90487       NO       
     90511       NO       
     90512       NO       
     90586       NO       
     90587       NO       
     90611       NO       
     90612       NO       
     90686       NO       
     90687       NO       
     90711       NO       
     90712       NO       
     90786       NO       
     90787       NO       
     90811       NO       
     90812       NO       
     90886       NO       
     90887       NO       
     90911       NO       
     90912       NO       
     90986       NO       
     90987       NO       
     91001       NO       
     91002       NO       
     91003       NO       
     91004       NO       
     91005       NO       
     91006       NO       
     91007       NO       
     91008       NO       
     91009       NO       
     91010       NO       
     91011       NO       
     91012       NO       
     91013       NO       
     91014       NO       
     91015       NO       
     91016       NO       
     91017       NO       
     91018       NO       
     91019       NO       
     91020       NO       
     91021       NO       
     91022       NO       
     91023       NO       
     91024       NO       
     91025       NO       
     91026       NO       
     91027       NO       
     91028       NO       
     91029       NO       
     91030       NO       
     91031       NO       
     91032       NO       
     91033       NO       
     91034       NO       
     91035       NO       
     91036       NO       
     91037       NO       
     91038       NO       
     91039       NO       
     91040       NO       
     91041       NO       
     91042       NO       
     91043       NO       
     91044       NO       
     91045       NO       
     91046       NO       
     91047       NO       
     91048       NO       
     91049       NO       
     91050       NO       
     91051       NO       
     91052       NO       
     91053       NO       
     91054       NO       
     91055       NO       
     91056       NO       
     91057       NO       
     91058       NO       
     91059       NO       
     91060       NO       
     91061       NO       
     91062       NO       
     91063       NO       
     91064       NO       
     91065       NO       
     91066       NO       
     91067       NO       
     91068       NO       
     91069       NO       
     91070       NO       
     91071       NO       
     91072       NO       
     91073       NO       
     91074       NO       
     91075       NO       
     91076       NO       
     91077       NO       
     91078       NO       
     91079       NO       
     91080       NO       
     91081       NO       
     91082       NO       
     91083       NO       
     91084       NO       
     91085       NO       
     91086       NO       
     91087       NO       
     91088       NO       
     91089       NO       
     91090       NO       
     91091       NO       
     91092       NO       
     91093       NO       
     91094       NO       
     91095       NO       
     91096       NO       
     91097       NO       
     91101       NO       
     91102       NO       
     91103       NO       
     91104       NO       
     91105       NO       
     91106       NO       
     91107       NO       
     91108       NO       
     91109       NO       
     91110       NO       
     91111       NO       
     91112       NO       
     91113       NO       
     91114       NO       
     91115       NO       
     91116       NO       
     91117       NO       
     91118       NO       
     91119       NO       
     91120       NO       
     91121       NO       
     91122       NO       
     91123       NO       
     91124       NO       
     91125       NO       
     91126       NO       
     91127       NO       
     91128       NO       
     91129       NO       
     91130       NO       
     91131       NO       
     91132       NO       
     91133       NO       
     91134       NO       
     91135       NO       
     91136       NO       
     91137       NO       
     91138       NO       
     91139       NO       
     91140       NO       
     91141       NO       
     91142       NO       
     91143       NO       
     91144       NO       
     91145       NO       
     91146       NO       
     91147       NO       
     91148       NO       
     91149       NO       
     91150       NO       
     91151       NO       
     91152       NO       
     91153       NO       
     91154       NO       
     91155       NO       
     91156       NO       
     91157       NO       
     91158       NO       
     91159       NO       
     91160       NO       
     91161       NO       
     91162       NO       
     91163       NO       
     91164       NO       
     91165       NO       
     91166       NO       
     91167       NO       
     91168       NO       
     91169       NO       
     91170       NO       
     91171       NO       
     91172       NO       
     91173       NO       
     91174       NO       
     91175       NO       
     91176       NO       
     91177       NO       
     91178       NO       
     91179       NO       
     91180       NO       
     91181       NO       
     91182       NO       
     91183       NO       
     91184       NO       
     91185       NO       
     91186       NO       
     91187       NO       
     91188       NO       
     91189       NO       
     91190       NO       
     91191       NO       
     91192       NO       
     91193       NO       
     91194       NO       
     91195       NO       
     91196       NO       
     91197       NO       
     91211       NO       
     91212       NO       
     91286       NO       
     91287       NO       
     91311       NO       
     91312       NO       
     91386       NO       
     91387       NO       
     91411       NO       
     91412       NO       
     91486       NO       
     91487       NO       
     91511       NO       
     91512       NO       
     91586       NO       
     91587       NO       
     91611       NO       
     91612       NO       
     91686       NO       
     91687       NO       
     91711       NO       
     91712       NO       
     91786       NO       
     91787       NO       
     91811       NO       
     91812       NO       
     91886       NO       
     91887       NO       
     91911       NO       
     91912       NO       
     91986       NO       
     91987       NO       
     92011       NO       
     92012       NO       
     92086       NO       
     92087       NO       
     92111       NO       
     92112       NO       
     92186       NO       
     92187       NO       
     92211       NO       
     92212       NO       
     92286       NO       
     92287       NO       
     92311       NO       
     92312       NO       
     92386       NO       
     92387       NO       
     92411       NO       
     92412       NO       
     92486       NO       
     92487       NO       
     92511       NO       
     92512       NO       
     92586       NO       
     92587       NO       
     92611       NO       
     92612       NO       
     92686       NO       
     92687       NO       
     92711       NO       
     92712       NO       
     92786       NO       
     92787       NO       
     92811       NO       
     92812       NO       
     92886       NO       
     92887       NO       
     92911       NO       
     92912       NO       
     92986       NO       
     92987       NO       
     93011       NO       
     93012       NO       
     93086       NO       
     93087       NO       
     93111       NO       
     93112       NO       
     93186       NO       
     93187       NO       
     93211       NO       
     93212       NO       
     93286       NO       
     93287       NO       
     93311       NO       
     93312       NO       
     93386       NO       
     93387       NO       
     93411       NO       
     93412       NO       
     93486       NO       
     93487       NO       
     93511       NO       
     93512       NO       
     93586       NO       
     93587       NO       
     93611       NO       
     93612       NO       
     93686       NO       
     93687       NO       
     93711       NO       
     93712       NO       
     93786       NO       
     93787       NO       
     93811       NO       
     93812       NO       
     93886       NO       
     93887       NO       
     93911       NO       
     93912       NO       
     93986       NO       
     93987       NO       
     94011       NO       
     94012       NO       
     94086       NO       
     94087       NO       
     94111       NO       
     94112       NO       
     94186       NO       
     94187       NO       
     94211       NO       
     94212       NO       
     94286       NO       
     94287       NO       
     94311       NO       
     94312       NO       
     94386       NO       
     94387       NO       
     94411       NO       
     94412       NO       
     94486       NO       
     94487       NO       
     94511       NO       
     94512       NO       
     94586       NO       
     94587       NO       
     94611       NO       
     94612       NO       
     94686       NO       
     94687       NO       
     94711       NO       
     94712       NO       
     94786       NO       
     94787       NO       
     94811       NO       
     94812       NO       
     94886       NO       
     94887       NO       
     94911       NO       
     94912       NO       
     94986       NO       
     94987       NO       
     95011       NO       
     95012       NO       
     95086       NO       
     95087       NO       
     95111       NO       
     95112       NO       
     95186       NO       
     95187       NO       
     95211       NO       
     95212       NO       
     95286       NO       
     95287       NO       
     95311       NO       
     95312       NO       
     95386       NO       
     95387       NO       
     95411       NO       
     95412       NO       
     95486       NO       
     95487       NO       
     95511       NO       
     95512       NO       
     95586       NO       
     95587       NO       
     95611       NO       
     95612       NO       
     95686       NO       
     95687       NO       
     95711       NO       
     95712       NO       
     95786       NO       
     95787       NO       
     95811       NO       
     95812       NO       
     95886       NO       
     95887       NO       
     95911       NO       
     95912       NO       
     95986       NO       
     95987       NO       
     96011       NO       
     96012       NO       
     96086       NO       
     96087       NO       
     96111       NO       
     96112       NO       
     96186       NO       
     96187       NO       
     96211       NO       
     96212       NO       
     96286       NO       
     96287       NO       
     96311       NO       
     96312       NO       
     96386       NO       
     96387       NO       
     96411       NO       
     96412       NO       
     96486       NO       
     96487       NO       
     96511       NO       
     96512       NO       
     96586       NO       
     96587       NO       
     96611       NO       
     96612       NO       
     96686       NO       
     96687       NO       
     96711       NO       
     96712       NO       
     96786       NO       
     96787       NO       
     96811       NO       
     96812       NO       
     96886       NO       
     96887       NO       
     96911       NO       
     96912       NO       
     96986       NO       
     96987       NO       
     97011       NO       
     97012       NO       
     97086       NO       
     97087       NO       
     97111       NO       
     97112       NO       
     97186       NO       
     97187       NO       
     97211       NO       
     97212       NO       
     97286       NO       
     97287       NO       
     97311       NO       
     97312       NO       
     97386       NO       
     97387       NO       
     97411       NO       
     97412       NO       
     97486       NO       
     97487       NO       
     97511       NO       
     97512       NO       
     97586       NO       
     97587       NO       
     97611       NO       
     97612       NO       
     97686       NO       
     97687       NO       
     97711       NO       
     97712       NO       
     97786       NO       
     97787       NO       
     97811       NO       
     97812       NO       
     97886       NO       
     97887       NO       
     97911       NO       
     97912       NO       
     97986       NO       
     97987       NO       
     98011       NO       
     98012       NO       
     98086       NO       
     98087       NO       
     98111       NO       
     98112       NO       
     98186       NO       
     98187       NO       
     98211       NO       
     98212       NO       
     98286       NO       
     98287       NO       
     98311       NO       
     98312       NO       
     98386       NO       
     98387       NO       
     98411       NO       
     98412       NO       
     98486       NO       
     98487       NO       
     98501       NO       
     98502       NO       
     98503       NO       
     98504       NO       
     98505       NO       
     98506       NO       
     98507       NO       
     98508       NO       
     98509       NO       
     98510       NO       
     98511       NO       
     98512       NO       
     98513       NO       
     98514       NO       
     98515       NO       
     98516       NO       
     98517       NO       
     98518       NO       
     98519       NO       
     98520       NO       
     98521       NO       
     98522       NO       
     98523       NO       
     98524       NO       
     98525       NO       
     98526       NO       
     98527       NO       
     98528       NO       
     98529       NO       
     98530       NO       
     98531       NO       
     98532       NO       
     98533       NO       
     98534       NO       
     98535       NO       
     98536       NO       
     98537       NO       
     98538       NO       
     98539       NO       
     98540       NO       
     98541       NO       
     98542       NO       
     98543       NO       
     98544       NO       
     98545       NO       
     98546       NO       
     98547       NO       
     98548       NO       
     98549       NO       
     98550       NO       
     98551       NO       
     98552       NO       
     98553       NO       
     98554       NO       
     98555       NO       
     98556       NO       
     98557       NO       
     98558       NO       
     98559       NO       
     98560       NO       
     98561       NO       
     98562       NO       
     98563       NO       
     98564       NO       
     98565       NO       
     98566       NO       
     98567       NO       
     98568       NO       
     98569       NO       
     98570       NO       
     98571       NO       
     98572       NO       
     98573       NO       
     98574       NO       
     98575       NO       
     98576       NO       
     98577       NO       
     98578       NO       
     98579       NO       
     98580       NO       
     98581       NO       
     98582       NO       
     98583       NO       
     98584       NO       
     98585       NO       
     98586       NO       
     98587       NO       
     98588       NO       
     98589       NO       
     98590       NO       
     98591       NO       
     98592       NO       
     98593       NO       
     98594       NO       
     98595       NO       
     98596       NO       
     98597       NO       
     98601       NO       
     98602       NO       
     98603       NO       
     98604       NO       
     98605       NO       
     98606       NO       
     98607       NO       
     98608       NO       
     98609       NO       
     98610       NO       
     98611       NO       
     98612       NO       
     98613       NO       
     98614       NO       
     98615       NO       
     98616       NO       
     98617       NO       
     98618       NO       
     98619       NO       
     98620       NO       
     98621       NO       
     98622       NO       
     98623       NO       
     98624       NO       
     98625       NO       
     98626       NO       
     98627       NO       
     98628       NO       
     98629       NO       
     98630       NO       
     98631       NO       
     98632       NO       
     98633       NO       
     98634       NO       
     98635       NO       
     98636       NO       
     98637       NO       
     98638       NO       
     98639       NO       
     98640       NO       
     98641       NO       
     98642       NO       
     98643       NO       
     98644       NO       
     98645       NO       
     98646       NO       
     98647       NO       
     98648       NO       
     98649       NO       
     98650       NO       
     98651       NO       
     98652       NO       
     98653       NO       
     98654       NO       
     98655       NO       
     98656       NO       
     98657       NO       
     98658       NO       
     98659       NO       
     98660       NO       
     98661       NO       
     98662       NO       
     98663       NO       
     98664       NO       
     98665       NO       
     98666       NO       
     98667       NO       
     98668       NO       
     98669       NO       
     98670       NO       
     98671       NO       
     98672       NO       
     98673       NO       
     98674       NO       
     98675       NO       
     98676       NO       
     98677       NO       
     98678       NO       
     98679       NO       
     98680       NO       
     98681       NO       
     98682       NO       
     98683       NO       
     98684       NO       
     98685       NO       
     98686       NO       
     98687       NO       
     98688       NO       
     98689       NO       
     98690       NO       
     98691       NO       
     98692       NO       
     98693       NO       
     98694       NO       
     98695       NO       
     98696       NO       
     98697       NO       
     98711       NO       
     98712       NO       
     98786       NO       
     98787       NO       
     98811       NO       
     98812       NO       
     98886       NO       
     98887       NO       
     98911       NO       
     98912       NO       
     98986       NO       
     98987       NO       
     99011       NO       
     99012       NO       
     99086       NO       
     99087       NO       
     99111       NO       
     99112       NO       
     99186       NO       
     99187       NO       
     99211       NO       
     99212       NO       
     99286       NO       
     99287       NO       
     99311       NO       
     99312       NO       
     99386       NO       
     99387       NO       
     99411       NO       
     99412       NO       
     99486       NO       
     99487       NO       
     99511       NO       
     99512       NO       
     99586       NO       
     99587       NO       
     99611       NO       
     99612       NO       
     99686       NO       
     99687       NO       
  



                            P R O B L E M   S I Z E


          NUMBER OF ELEMENTS IS                                 94090
          NUMBER OF NODES IS                                   199734
          NUMBER OF NODES DEFINED BY THE USER                  105644
          NUMBER OF INTERNAL NODES GENERATED BY THE PROGRAM     94090
          TOTAL NUMBER OF VARIABLES IN THE MODEL               411022
          (DEGREES OF FREEDOM PLUS MAX NO. OF ANY LAGRANGE MULTIPLIER
           VARIABLES. INCLUDE *PRINT,SOLVE=YES TO GET THE ACTUAL NUMBER.)



                              END OF USER INPUT PROCESSING



     JOB TIME SUMMARY
       USER TIME (SEC)      =   7.2600    
       SYSTEM TIME (SEC)    =  0.38000    
       TOTAL CPU TIME (SEC) =   7.6400    
       WALLCLOCK TIME (SEC) =          7
1

   Abaqus 6.14-4                                  Date 21-May-2023   Time 16:27:50
   For use at DELFT UNIVERSITY OF TECHNOLOGY under license from Dassault Systemes or its subsidiary.

     3D HALFSPACE, 97x97x10 elements, 73x73 load elements of 80 km                             STEP    1  INCREMENT    1
                                                                                          TIME COMPLETED IN THIS STEP   0.00    


                        S T E P       1     V I S C O   A N A L Y S I S


                                                                                          

     AUTOMATIC TIME CONTROL WITH -
          A SUGGESTED INITIAL TIME INCREMENT OF                3.000E+06
          AND A TOTAL TIME PERIOD OF                           3.156E+07
          THE MINIMUM TIME INCREMENT ALLOWED IS                3.156E+04
          THE MAXIMUM TIME INCREMENT ALLOWED IS                3.156E+07

     THE SIZE OF THE TIME INCREMENT IS CONTROLLED BY -
          THE PARAMETER  CETOL                                 1.000E-02

          THE STEP WILL USE EXPLICIT TIME INTEGRATION,
          SWITCHING TO IMPLICIT INTEGRATION IF THIS 
SEEMS NECESSARY.
  
                   M E M O R Y   E S T I M A T E
  
 PROCESS      FLOATING PT       MINIMUM MEMORY        MEMORY TO
              OPERATIONS           REQUIRED          MINIMIZE I/O
             PER ITERATION           (MB)               (MB)
  
     1          1.51E+12              465               4961
  
 NOTE:
      (1) SINCE ABAQUS DOES NOT PRE-ALLOCATE MEMORY AND ONLY ALLOCATES MEMORY AS NEEDED DURING THE ANALYSIS,
          THE MEMORY REQUIREMENT PRINTED HERE CAN ONLY BE VIEWED AS A GENERAL GUIDELINE BASED ON THE BEST
          KNOWLEDGE AVAILABLE AT THE BEGINNING OF A STEP BEFORE THE SOLUTION PROCESS HAS BEGUN.
      (2) THE ESTIMATE IS NORMALLY UPDATED AT THE BEGINNING OF EVERY STEP. IT IS THE MAXIMUM VALUE OF THE
          ESTIMATE FROM THE CURRENT STEP TO THE LAST STEP OF THE ANALYSIS, WITH UNSYMMETRIC SOLUTION TAKEN
          INTO ACCOUNT IF APPLICABLE. 
      (3) SINCE THE ESTIMATE IS BASED ON THE ACTIVE DEGREES OF FREEDOM IN THE FIRST ITERATION OF THE 
          CURRENT STEP, THE MEMORY ESTIMATE MIGHT BE SIGNIFICANTLY DIFFERENT THAN ACTUAL USAGE FOR 
          PROBLEMS WITH SUBSTANTIAL CHANGES IN ACTIVE DEGREES OF FREEDOM BETWEEN STEPS (OR EVEN WITHIN
          THE SAME STEP). EXAMPLES ARE: PROBLEMS WITH SIGNIFICANT CONTACT CHANGES, PROBLEMS WITH MODEL
          CHANGE, PROBLEMS WITH BOTH STATIC STEP AND STEADY STATE DYNAMIC PROCEDURES WHERE ACOUSTIC 
          ELEMENTS WILL ONLY BE ACTIVATED IN THE STEADY STATE DYNAMIC STEPS.
      (4) FOR MULTI-PROCESS EXECUTION, THE ESTIMATED VALUE OF FLOATING POINT OPERATIONS FOR EACH PROCESS
          IS BASED ON AN INITIAL SCHEDULING OF OPERATIONS AND MIGHT NOT REFLECT THE ACTUAL FLOATING 
          POINT OPERATIONS COMPLETED ON EACH PROCESS. OPERATIONS ARE DYNAMICALLY BALANCED DURING EXECUTION, 
          SO THE ACTUAL BALANCE OF OPERATIONS BETWEEN PROCESSES IS EXPECTED TO BE BETTER THAN THE ESTIMATE
          PRINTED HERE.
      (5) THE UPPER LIMIT OF MEMORY THAT CAN BE ALLOCATED BY ABAQUS WILL IN GENERAL DEPEND ON THE VALUE OF
          THE "MEMORY" PARAMETER AND THE AMOUNT OF PHYSICAL MEMORY AVAILABLE ON THE MACHINE. PLEASE SEE
          THE "ABAQUS ANALYSIS USER'S MANUAL" FOR MORE DETAILS. THE ACTUAL USAGE OF MEMORY AND OF DISK
          SPACE FOR SCRATCH DATA WILL DEPEND ON THIS UPPER LIMIT AS WELL AS THE MEMORY REQUIRED TO MINIMIZE
          I/O. IF THE MEMORY UPPER LIMIT IS GREATER THAN THE MEMORY REQUIRED TO MINIMIZE I/O, THEN THE ACTUAL
          MEMORY USAGE WILL BE CLOSE TO THE ESTIMATED "MEMORY TO MINIMIZE I/O" VALUE, AND THE SCRATCH DISK
          USAGE WILL BE CLOSE-TO-ZERO; OTHERWISE, THE ACTUAL MEMORY USED WILL BE CLOSE TO THE PREVIOUSLY
          MENTIONED MEMORY LIMIT, AND THE SCRATCH DISK USAGE WILL BE ROUGHLY PROPORTIONAL TO THE DIFFERENCE
          BETWEEN THE ESTIMATED "MEMORY TO MINIMIZE I/O" AND THE MEMORY UPPER LIMIT. HOWEVER ACCURATE
          ESTIMATE OF THE SCRATCH DISK SPACE IS NOT POSSIBLE.
      (6) USING "*RESTART, WRITE" CAN GENERATE A LARGE AMOUNT OF DATA WRITTEN IN THE WORK DIRECTORY.


                                INCREMENT     6 SUMMARY


 TIME INCREMENT COMPLETED  4.558E+06,  FRACTION OF STEP COMPLETED   1.00    
 STEP TIME COMPLETED       3.156E+07,  TOTAL TIME COMPLETED        3.156E+07
  
  
  
  
                                       N O D E   O U T P U T
  
  
  
  
   THE FOLLOWING TABLE IS PRINTED FOR NODES BELONGING TO NODE SET UZPLANE
  
       NODE FOOT-  COOR1          COOR2          U1             U2             U3           
            NOTE
  
         1     -1.0000000E+07 -1.0000000E+07  0.0000000E+00  0.0000000E+00  2.6783170E-02 
         2     -7.7611093E+06 -1.0000000E+07  0.0000000E+00  0.0000000E+00  2.8352214E-02 
         3     -6.2223528E+06 -1.0000000E+07  0.0000000E+00  0.0000000E+00  2.8427286E-02 
         4     -5.1647882E+06 -1.0000000E+07  0.0000000E+00  0.0000000E+00  2.6529534E-02 
         5     -4.4379397E+06 -1.0000000E+07  0.0000000E+00  0.0000000E+00  2.4589344E-02 
         6     -3.9383875E+06 -1.0000000E+07  0.0000000E+00  0.0000000E+00  2.3049924E-02 
         7     -3.5950526E+06 -1.0000000E+07  0.0000000E+00  0.0000000E+00  2.1944444E-02 
         8     -3.3590836E+06 -1.0000000E+07  0.0000000E+00  0.0000000E+00  2.1176677E-02 
         9     -3.1969056E+06 -1.0000000E+07  0.0000000E+00  0.0000000E+00  2.0650684E-02 
        10     -3.0854431E+06 -1.0000000E+07  0.0000000E+00  0.0000000E+00  2.0291794E-02 
        11     -3.0088365E+06 -1.0000000E+07  0.0000000E+00  0.0000000E+00  2.0046674E-02 
        12     -2.9561859E+06 -1.0000000E+07  0.0000000E+00  0.0000000E+00  1.9879265E-02 
        13     -2.9200000E+06 -1.0000000E+07  0.0000000E+00  0.0000000E+00  1.9762427E-02 
        14     -2.8400000E+06 -1.0000000E+07  0.0000000E+00  0.0000000E+00  1.9515356E-02 
        15     -2.7600000E+06 -1.0000000E+07  0.0000000E+00  0.0000000E+00  1.9268189E-02 
        16     -2.6800000E+06 -1.0000000E+07  0.0000000E+00  0.0000000E+00  1.9024872E-02 
        17     -2.6000000E+06 -1.0000000E+07  0.0000000E+00  0.0000000E+00  1.8784608E-02 
        18     -2.5200000E+06 -1.0000000E+07  0.0000000E+00  0.0000000E+00  1.8548054E-02 
        19     -2.4400000E+06 -1.0000000E+07  0.0000000E+00  0.0000000E+00  1.8315346E-02 
        20     -2.3600000E+06 -1.0000000E+07  0.0000000E+00  0.0000000E+00  1.8086820E-02 
        21     -2.2800000E+06 -1.0000000E+07  0.0000000E+00  0.0000000E+00  1.7862736E-02 
        22     -2.2000000E+06 -1.0000000E+07  0.0000000E+00  0.0000000E+00  1.7643387E-02 
        23     -2.1200000E+06 -1.0000000E+07  0.0000000E+00  0.0000000E+00  1.7429051E-02 
        24     -2.0400000E+06 -1.0000000E+07  0.0000000E+00  0.0000000E+00  1.7220006E-02 
        25     -1.9600000E+06 -1.0000000E+07  0.0000000E+00  0.0000000E+00  1.7016527E-02 
        26     -1.8800000E+06 -1.0000000E+07  0.0000000E+00  0.0000000E+00  1.6818882E-02 
        27     -1.8000000E+06 -1.0000000E+07  0.0000000E+00  0.0000000E+00  1.6627336E-02 
        28     -1.7200000E+06 -1.0000000E+07  0.0000000E+00  0.0000000E+00  1.6442145E-02 
        29     -1.6400000E+06 -1.0000000E+07  0.0000000E+00  0.0000000E+00  1.6263557E-02 
        30     -1.5600000E+06 -1.0000000E+07  0.0000000E+00  0.0000000E+00  1.6091813E-02 
        31     -1.4800000E+06 -1.0000000E+07  0.0000000E+00  0.0000000E+00  1.5927147E-02 
        32     -1.4000000E+06 -1.0000000E+07  0.0000000E+00  0.0000000E+00  1.5769782E-02 
        33     -1.3200000E+06 -1.0000000E+07  0.0000000E+00  0.0000000E+00  1.5619932E-02 
        34     -1.2400000E+06 -1.0000000E+07  0.0000000E+00  0.0000000E+00  1.5477802E-02 
        35     -1.1600000E+06 -1.0000000E+07  0.0000000E+00  0.0000000E+00  1.5343585E-02 
        36     -1.0800000E+06 -1.0000000E+07  0.0000000E+00  0.0000000E+00  1.5217466E-02 
        37     -1.0000000E+06 -1.0000000E+07  0.0000000E+00  0.0000000E+00  1.5099616E-02 
        38     -9.2000000E+05 -1.0000000E+07  0.0000000E+00  0.0000000E+00  1.4990198E-02 
        39     -8.4000000E+05 -1.0000000E+07  0.0000000E+00  0.0000000E+00  1.4889362E-02 
        40     -7.6000000E+05 -1.0000000E+07  0.0000000E+00  0.0000000E+00  1.4797246E-02 
        41     -6.8000000E+05 -1.0000000E+07  0.0000000E+00  0.0000000E+00  1.4713976E-02 
        42     -6.0000000E+05 -1.0000000E+07  0.0000000E+00  0.0000000E+00  1.4639668E-02 
        43     -5.2000000E+05 -1.0000000E+07  0.0000000E+00  0.0000000E+00  1.4574423E-02 
        44     -4.4000000E+05 -1.0000000E+07  0.0000000E+00  0.0000000E+00  1.4518331E-02 
        45     -3.6000000E+05 -1.0000000E+07  0.0000000E+00  0.0000000E+00  1.4471469E-02 
        46     -2.8000000E+05 -1.0000000E+07  0.0000000E+00  0.0000000E+00  1.4433902E-02 
        47     -2.0000000E+05 -1.0000000E+07  0.0000000E+00  0.0000000E+00  1.4405681E-02 
        48     -1.2000000E+05 -1.0000000E+07  0.0000000E+00  0.0000000E+00  1.4386846E-02 
        49     -4.0000000E+04 -1.0000000E+07  0.0000000E+00  0.0000000E+00  1.4377422E-02 
        50      4.0000000E+04 -1.0000000E+07  0.0000000E+00  0.0000000E+00  1.4377422E-02 
        51      1.2000000E+05 -1.0000000E+07  0.0000000E+00  0.0000000E+00  1.4386846E-02 
        52      2.0000000E+05 -1.0000000E+07  0.0000000E+00  0.0000000E+00  1.4405682E-02 
        53      2.8000000E+05 -1.0000000E+07  0.0000000E+00  0.0000000E+00  1.4433903E-02 
        54      3.6000000E+05 -1.0000000E+07  0.0000000E+00  0.0000000E+00  1.4471470E-02 
        55      4.4000000E+05 -1.0000000E+07  0.0000000E+00  0.0000000E+00  1.4518332E-02 
        56      5.2000000E+05 -1.0000000E+07  0.0000000E+00  0.0000000E+00  1.4574424E-02 
        57      6.0000000E+05 -1.0000000E+07  0.0000000E+00  0.0000000E+00  1.4639669E-02 
        58      6.8000000E+05 -1.0000000E+07  0.0000000E+00  0.0000000E+00  1.4713978E-02 
        59      7.6000000E+05 -1.0000000E+07  0.0000000E+00  0.0000000E+00  1.4797248E-02 
        60      8.4000000E+05 -1.0000000E+07  0.0000000E+00  0.0000000E+00  1.4889364E-02 
        61      9.2000000E+05 -1.0000000E+07  0.0000000E+00  0.0000000E+00  1.4990200E-02 
        62      1.0000000E+06 -1.0000000E+07  0.0000000E+00  0.0000000E+00  1.5099619E-02 
        63      1.0800000E+06 -1.0000000E+07  0.0000000E+00  0.0000000E+00  1.5217468E-02 
        64      1.1600000E+06 -1.0000000E+07  0.0000000E+00  0.0000000E+00  1.5343588E-02 
        65      1.2400000E+06 -1.0000000E+07  0.0000000E+00  0.0000000E+00  1.5477805E-02 
        66      1.3200000E+06 -1.0000000E+07  0.0000000E+00  0.0000000E+00  1.5619935E-02 
        67      1.4000000E+06 -1.0000000E+07  0.0000000E+00  0.0000000E+00  1.5769785E-02 
        68      1.4800000E+06 -1.0000000E+07  0.0000000E+00  0.0000000E+00  1.5927151E-02 
        69      1.5600000E+06 -1.0000000E+07  0.0000000E+00  0.0000000E+00  1.6091817E-02 
        70      1.6400000E+06 -1.0000000E+07  0.0000000E+00  0.0000000E+00  1.6263560E-02 
        71      1.7200000E+06 -1.0000000E+07  0.0000000E+00  0.0000000E+00  1.6442149E-02 
        72      1.8000000E+06 -1.0000000E+07  0.0000000E+00  0.0000000E+00  1.6627340E-02 
        73      1.8800000E+06 -1.0000000E+07  0.0000000E+00  0.0000000E+00  1.6818887E-02 
        74      1.9600000E+06 -1.0000000E+07  0.0000000E+00  0.0000000E+00  1.7016531E-02 
        75      2.0400000E+06 -1.0000000E+07  0.0000000E+00  0.0000000E+00  1.7220011E-02 
        76      2.1200000E+06 -1.0000000E+07  0.0000000E+00  0.0000000E+00  1.7429056E-02 
        77      2.2000000E+06 -1.0000000E+07  0.0000000E+00  0.0000000E+00  1.7643393E-02 
        78      2.2800000E+06 -1.0000000E+07  0.0000000E+00  0.0000000E+00  1.7862742E-02 
        79      2.3600000E+06 -1.0000000E+07  0.0000000E+00  0.0000000E+00  1.8086825E-02 
        80      2.4400000E+06 -1.0000000E+07  0.0000000E+00  0.0000000E+00  1.8315352E-02 
        81      2.5200000E+06 -1.0000000E+07  0.0000000E+00  0.0000000E+00  1.8548060E-02 
        82      2.6000000E+06 -1.0000000E+07  0.0000000E+00  0.0000000E+00  1.8784614E-02 
        83      2.6800000E+06 -1.0000000E+07  0.0000000E+00  0.0000000E+00  1.9024879E-02 
        84      2.7600000E+06 -1.0000000E+07  0.0000000E+00  0.0000000E+00  1.9268195E-02 
        85      2.8400000E+06 -1.0000000E+07  0.0000000E+00  0.0000000E+00  1.9515362E-02 
        86      2.9200000E+06 -1.0000000E+07  0.0000000E+00  0.0000000E+00  1.9762434E-02 
        87      2.9561929E+06 -1.0000000E+07  0.0000000E+00  0.0000000E+00  1.9879294E-02 
        88      3.0088524E+06 -1.0000000E+07  0.0000000E+00  0.0000000E+00  2.0046731E-02 
        89      3.0854704E+06 -1.0000000E+07  0.0000000E+00  0.0000000E+00  2.0291889E-02 
        90      3.1969472E+06 -1.0000000E+07  0.0000000E+00  0.0000000E+00  2.0650825E-02 
        91      3.3591424E+06 -1.0000000E+07  0.0000000E+00  0.0000000E+00  2.1176874E-02 
        92      3.5951314E+06 -1.0000000E+07  0.0000000E+00  0.0000000E+00  2.1944705E-02 
        93      3.9384879E+06 -1.0000000E+07  0.0000000E+00  0.0000000E+00  2.3050248E-02 
        94      4.4380610E+06 -1.0000000E+07  0.0000000E+00  0.0000000E+00  2.4589705E-02 
        95      5.1649241E+06 -1.0000000E+07  0.0000000E+00  0.0000000E+00  2.6529857E-02 
        96      6.2224873E+06 -1.0000000E+07  0.0000000E+00  0.0000000E+00  2.8427440E-02 
        97      7.7612086E+06 -1.0000000E+07  0.0000000E+00  0.0000000E+00  2.8352168E-02 
        98      1.0000000E+07 -1.0000000E+07  0.0000000E+00  0.0000000E+00  2.6783120E-02 
       101     -1.0000000E+07 -7.7611093E+06  0.0000000E+00  0.0000000E+00  2.8352214E-02 
       102     -7.7611093E+06 -7.7611093E+06  8.4317270E-03  8.4317270E-03  2.4606940E-02 
       103     -6.2223528E+06 -7.7611093E+06  2.0118237E-02  2.8259784E-02  1.3340335E-02 
       104     -5.1647882E+06 -7.7611093E+06  2.9119187E-02  4.8832648E-02  2.6864433E-04 
       105     -4.4379397E+06 -7.7611093E+06  3.3945468E-02  6.5831534E-02 -1.1314388E-02 
       106     -3.9383875E+06 -7.7611093E+06  3.5997180E-02  7.8380536E-02 -2.0067100E-02 
       107     -3.5950526E+06 -7.7611093E+06  3.6639319E-02  8.7207402E-02 -2.6317616E-02 
       108     -3.3590836E+06 -7.7611093E+06  3.6665473E-02  9.3281446E-02 -3.0646499E-02 
       109     -3.1969056E+06 -7.7611093E+06  3.6474574E-02  9.7429211E-02 -3.3616728E-02 
       110     -3.0854431E+06 -7.7611093E+06  3.6240883E-02  1.0025643E-01 -3.5645635E-02 
       111     -3.0088365E+06 -7.7611093E+06  3.6031137E-02  1.0218490E-01 -3.7032172E-02 
       112     -2.9561859E+06 -7.7611093E+06  3.5863273E-02  1.0350220E-01 -3.7980668E-02 
       113     -2.9200000E+06 -7.7611093E+06  3.5735059E-02  1.0440335E-01 -3.8633681E-02 
       114     -2.8400000E+06 -7.7611093E+06  3.5422756E-02  1.0638205E-01 -4.0049487E-02 
       115     -2.7600000E+06 -7.7611093E+06  3.5067342E-02  1.0834047E-01 -4.1457036E-02 
       116     -2.6800000E+06 -7.7611093E+06  3.4667593E-02  1.1027632E-01 -4.2848267E-02 
       117     -2.6000000E+06 -7.7611093E+06  3.4223463E-02  1.1218732E-01 -4.4222946E-02 
       118     -2.5200000E+06 -7.7611093E+06  3.3735027E-02  1.1407116E-01 -4.5578881E-02 
       119     -2.4400000E+06 -7.7611093E+06  3.3202281E-02  1.1592554E-01 -4.6914577E-02 
       120     -2.3600000E+06 -7.7611093E+06  3.2625418E-02  1.1774814E-01 -4.8228234E-02 
       121     -2.2800000E+06 -7.7611093E+06  3.2004674E-02  1.1953667E-01 -4.9518168E-02 
       122     -2.2000000E+06 -7.7611093E+06  3.1340404E-02  1.2128883E-01 -5.0782640E-02 
       123     -2.1200000E+06 -7.7611093E+06  3.0633048E-02  1.2300233E-01 -5.2019937E-02 
       124     -2.0400000E+06 -7.7611093E+06  2.9883146E-02  1.2467490E-01 -5.3228351E-02 
       125     -1.9600000E+06 -7.7611093E+06  2.9091335E-02  1.2630432E-01 -5.4406191E-02 
       126     -1.8800000E+06 -7.7611093E+06  2.8258345E-02  1.2788838E-01 -5.5551791E-02 
       127     -1.8000000E+06 -7.7611093E+06  2.7385003E-02  1.2942489E-01 -5.6663510E-02 
       128     -1.7200000E+06 -7.7611093E+06  2.6472227E-02  1.3091174E-01 -5.7739740E-02 
       129     -1.6400000E+06 -7.7611093E+06  2.5521030E-02  1.3234682E-01 -5.8778911E-02 
       130     -1.5600000E+06 -7.7611093E+06  2.4532512E-02  1.3372812E-01 -5.9779490E-02 
       131     -1.4800000E+06 -7.7611093E+06  2.3507862E-02  1.3505365E-01 -6.0739991E-02 
       132     -1.4000000E+06 -7.7611093E+06  2.2448357E-02  1.3632150E-01 -6.1658976E-02 
       133     -1.3200000E+06 -7.7611093E+06  2.1355357E-02  1.3752982E-01 -6.2535060E-02 
       134     -1.2400000E+06 -7.7611093E+06  2.0230302E-02  1.3867684E-01 -6.3366910E-02 
       135     -1.1600000E+06 -7.7611093E+06  1.9074711E-02  1.3976086E-01 -6.4153257E-02 
       136     -1.0800000E+06 -7.7611093E+06  1.7890178E-02  1.4078027E-01 -6.4892891E-02 
       137     -1.0000000E+06 -7.7611093E+06  1.6678368E-02  1.4173353E-01 -6.5584668E-02 
       138     -9.2000000E+05 -7.7611093E+06  1.5441016E-02  1.4261920E-01 -6.6227513E-02 
       139     -8.4000000E+05 -7.7611093E+06  1.4179918E-02  1.4343595E-01 -6.6820422E-02 
       140     -7.6000000E+05 -7.7611093E+06  1.2896930E-02  1.4418253E-01 -6.7362466E-02 
       141     -6.8000000E+05 -7.7611093E+06  1.1593966E-02  1.4485778E-01 -6.7852790E-02 
       142     -6.0000000E+05 -7.7611093E+06  1.0272988E-02  1.4546068E-01 -6.8290619E-02 
       143     -5.2000000E+05 -7.7611093E+06  8.9360049E-03  1.4599028E-01 -6.8675260E-02 
       144     -4.4000000E+05 -7.7611093E+06  7.5850666E-03  1.4644577E-01 -6.9006101E-02 
       145     -3.6000000E+05 -7.7611093E+06  6.2222585E-03  1.4682643E-01 -6.9282614E-02 
       146     -2.8000000E+05 -7.7611093E+06  4.8496967E-03  1.4713168E-01 -6.9504358E-02 
       147     -2.0000000E+05 -7.7611093E+06  3.4695224E-03  1.4736104E-01 -6.9670978E-02 
       148     -1.2000000E+05 -7.7611093E+06  2.0838966E-03  1.4751414E-01 -6.9782206E-02 
       149     -4.0000000E+04 -7.7611093E+06  6.9499419E-04  1.4759076E-01 -6.9837865E-02 
       150      4.0000000E+04 -7.7611093E+06 -6.9500137E-04  1.4759076E-01 -6.9837865E-02 
       151      1.2000000E+05 -7.7611093E+06 -2.0839038E-03  1.4751414E-01 -6.9782206E-02 
       152      2.0000000E+05 -7.7611093E+06 -3.4695296E-03  1.4736104E-01 -6.9670978E-02 
       153      2.8000000E+05 -7.7611093E+06 -4.8497039E-03  1.4713168E-01 -6.9504359E-02 
       154      3.6000000E+05 -7.7611093E+06 -6.2222657E-03  1.4682643E-01 -6.9282615E-02 
       155      4.4000000E+05 -7.7611093E+06 -7.5850739E-03  1.4644577E-01 -6.9006102E-02 
       156      5.2000000E+05 -7.7611093E+06 -8.9360123E-03  1.4599028E-01 -6.8675261E-02 
       157      6.0000000E+05 -7.7611093E+06 -1.0272995E-02  1.4546068E-01 -6.8290621E-02 
       158      6.8000000E+05 -7.7611093E+06 -1.1593974E-02  1.4485779E-01 -6.7852791E-02 
       159      7.6000000E+05 -7.7611093E+06 -1.2896938E-02  1.4418253E-01 -6.7362467E-02 
       160      8.4000000E+05 -7.7611093E+06 -1.4179925E-02  1.4343596E-01 -6.6820424E-02 
       161      9.2000000E+05 -7.7611093E+06 -1.5441024E-02  1.4261921E-01 -6.6227515E-02 
       162      1.0000000E+06 -7.7611093E+06 -1.6678376E-02  1.4173353E-01 -6.5584670E-02 
       163      1.0800000E+06 -7.7611093E+06 -1.7890186E-02  1.4078027E-01 -6.4892893E-02 
       164      1.1600000E+06 -7.7611093E+06 -1.9074719E-02  1.3976086E-01 -6.4153259E-02 
       165      1.2400000E+06 -7.7611093E+06 -2.0230310E-02  1.3867684E-01 -6.3366913E-02 
       166      1.3200000E+06 -7.7611093E+06 -2.1355365E-02  1.3752982E-01 -6.2535062E-02 
       167      1.4000000E+06 -7.7611093E+06 -2.2448366E-02  1.3632150E-01 -6.1658979E-02 
       168      1.4800000E+06 -7.7611093E+06 -2.3507871E-02  1.3505365E-01 -6.0739994E-02 
       169      1.5600000E+06 -7.7611093E+06 -2.4532520E-02  1.3372812E-01 -5.9779493E-02 
       170      1.6400000E+06 -7.7611093E+06 -2.5521039E-02  1.3234683E-01 -5.8778914E-02 
       171      1.7200000E+06 -7.7611093E+06 -2.6472237E-02  1.3091174E-01 -5.7739744E-02 
       172      1.8000000E+06 -7.7611093E+06 -2.7385012E-02  1.2942490E-01 -5.6663513E-02 
       173      1.8800000E+06 -7.7611093E+06 -2.8258354E-02  1.2788839E-01 -5.5551794E-02 
       174      1.9600000E+06 -7.7611093E+06 -2.9091344E-02  1.2630433E-01 -5.4406195E-02 
       175      2.0400000E+06 -7.7611093E+06 -2.9883156E-02  1.2467491E-01 -5.3228354E-02 
       176      2.1200000E+06 -7.7611093E+06 -3.0633058E-02  1.2300233E-01 -5.2019941E-02 
       177      2.2000000E+06 -7.7611093E+06 -3.1340414E-02  1.2128884E-01 -5.0782644E-02 
       178      2.2800000E+06 -7.7611093E+06 -3.2004684E-02  1.1953668E-01 -4.9518172E-02 
       179      2.3600000E+06 -7.7611093E+06 -3.2625428E-02  1.1774815E-01 -4.8228238E-02 
       180      2.4400000E+06 -7.7611093E+06 -3.3202291E-02  1.1592555E-01 -4.6914581E-02 
       181      2.5200000E+06 -7.7611093E+06 -3.3735038E-02  1.1407117E-01 -4.5578885E-02 
       182      2.6000000E+06 -7.7611093E+06 -3.4223474E-02  1.1218733E-01 -4.4222950E-02 
       183      2.6800000E+06 -7.7611093E+06 -3.4667605E-02  1.1027634E-01 -4.2848271E-02 
       184      2.7600000E+06 -7.7611093E+06 -3.5067353E-02  1.0834049E-01 -4.1457040E-02 
       185      2.8400000E+06 -7.7611093E+06 -3.5422767E-02  1.0638206E-01 -4.0049492E-02 
       186      2.9200000E+06 -7.7611093E+06 -3.5735071E-02  1.0440337E-01 -3.8633686E-02 
       187      2.9561929E+06 -7.7611093E+06 -3.5863309E-02  1.0350204E-01 -3.7980548E-02 
       188      3.0088524E+06 -7.7611093E+06 -3.6031196E-02  1.0218451E-01 -3.7031890E-02 
       189      3.0854704E+06 -7.7611093E+06 -3.6240962E-02  1.0025576E-01 -3.5645144E-02 
       190      3.1969472E+06 -7.7611093E+06 -3.6474657E-02  9.7428171E-02 -3.3615976E-02 
       191      3.3591424E+06 -7.7611093E+06 -3.6665524E-02  9.3279956E-02 -3.0645430E-02 
       192      3.5951314E+06 -7.7611093E+06 -3.6639265E-02  8.7205394E-02 -2.6316185E-02 
       193      3.9384879E+06 -7.7611093E+06 -3.5996910E-02  7.8377997E-02 -2.0065309E-02 
       194      4.4380610E+06 -7.7611093E+06 -3.3944849E-02  6.5828593E-02 -1.1312351E-02 
       195      5.1649241E+06 -7.7611093E+06 -2.9118172E-02  4.8829715E-02  2.7060356E-04 
       196      6.2224873E+06 -7.7611093E+06 -2.0117099E-02  2.8257600E-02  1.3341700E-02 
       197      7.7612086E+06 -7.7611093E+06 -8.4310940E-03  8.4310219E-03  2.4607325E-02 
       198      1.0000000E+07 -7.7611093E+06  0.0000000E+00  0.0000000E+00  2.8352095E-02 
       201     -1.0000000E+07 -6.2223528E+06  0.0000000E+00  0.0000000E+00  2.8427286E-02 
       202     -7.7611093E+06 -6.2223528E+06  2.8259784E-02  2.0118237E-02  1.3340335E-02 
       203     -6.2223528E+06 -6.2223528E+06  5.4704964E-02  5.4704964E-02 -2.2324326E-02 
       204     -5.1647882E+06 -6.2223528E+06  7.4700093E-02  9.4555581E-02 -6.0008966E-02 
       205     -4.4379397E+06 -6.2223528E+06  8.6475962E-02  1.2917384E-01 -9.3165977E-02 
       206     -3.9383875E+06 -6.2223528E+06  9.2079095E-02  1.5583033E-01 -1.1864578E-01 
       207     -3.5950526E+06 -6.2223528E+06  9.4252705E-02  1.7514513E-01 -1.3712963E-01 
       208     -3.3590836E+06 -6.2223528E+06  9.4777197E-02  1.8872206E-01 -1.5009410E-01 
       209     -3.1969056E+06 -6.2223528E+06  9.4630593E-02  1.9812985E-01 -1.5907048E-01 
       210     -3.0854431E+06 -6.2223528E+06  9.4273998E-02  2.0460737E-01 -1.6524224E-01 
       211     -3.0088365E+06 -6.2223528E+06  9.3904048E-02  2.0905629E-01 -1.6947849E-01 
       212     -2.9561859E+06 -6.2223528E+06  9.3589188E-02  2.1210963E-01 -1.7238465E-01 
       213     -2.9200000E+06 -6.2223528E+06  9.3341059E-02  2.1420516E-01 -1.7438668E-01 
       214     -2.8400000E+06 -6.2223528E+06  9.2713303E-02  2.1882546E-01 -1.7875823E-01 
       215     -2.7600000E+06 -6.2223528E+06  9.1970259E-02  2.2342486E-01 -1.8311647E-01 
       216     -2.6800000E+06 -6.2223528E+06  9.1108339E-02  2.2799728E-01 -1.8744170E-01 
       217     -2.6000000E+06 -6.2223528E+06  9.0126325E-02  2.3253663E-01 -1.9173151E-01 
       218     -2.5200000E+06 -6.2223528E+06  8.9023032E-02  2.3703661E-01 -1.9597892E-01 
       219     -2.4400000E+06 -6.2223528E+06  8.7797355E-02  2.4149081E-01 -2.0017839E-01 
       220     -2.3600000E+06 -6.2223528E+06  8.6448609E-02  2.4589266E-01 -2.0432366E-01 
       221     -2.2800000E+06 -6.2223528E+06  8.4976315E-02  2.5023550E-01 -2.0840864E-01 
       222     -2.2000000E+06 -6.2223528E+06  8.3380331E-02  2.5451256E-01 -2.1242706E-01 
       223     -2.1200000E+06 -6.2223528E+06  8.1660807E-02  2.5871700E-01 -2.1637266E-01 
       224     -2.0400000E+06 -6.2223528E+06  7.9818216E-02  2.6284191E-01 -2.2023912E-01 
       225     -1.9600000E+06 -6.2223528E+06  7.7853358E-02  2.6688036E-01 -2.2402015E-01 
       226     -1.8800000E+06 -6.2223528E+06  7.5767365E-02  2.7082540E-01 -2.2770947E-01 
       227     -1.8000000E+06 -6.2223528E+06  7.3561705E-02  2.7467009E-01 -2.3130083E-01 
       228     -1.7200000E+06 -6.2223528E+06  7.1238192E-02  2.7840750E-01 -2.3478804E-01 
       229     -1.6400000E+06 -6.2223528E+06  6.8798982E-02  2.8203078E-01 -2.3816500E-01 
       230     -1.5600000E+06 -6.2223528E+06  6.6246576E-02  2.8553316E-01 -2.4142572E-01 
       231     -1.4800000E+06 -6.2223528E+06  6.3583821E-02  2.8890796E-01 -2.4456430E-01 
       232     -1.4000000E+06 -6.2223528E+06  6.0813906E-02  2.9214863E-01 -2.4757502E-01 
       233     -1.3200000E+06 -6.2223528E+06  5.7940359E-02  2.9524878E-01 -2.5045231E-01 
       234     -1.2400000E+06 -6.2223528E+06  5.4967042E-02  2.9820222E-01 -2.5319077E-01 
       235     -1.1600000E+06 -6.2223528E+06  5.1898141E-02  3.0100293E-01 -2.5578521E-01 
       236     -1.0800000E+06 -6.2223528E+06  4.8738162E-02  3.0364516E-01 -2.5823066E-01 
       237     -1.0000000E+06 -6.2223528E+06  4.5491914E-02  3.0612338E-01 -2.6052241E-01 
       238     -9.2000000E+05 -6.2223528E+06  4.2164501E-02  3.0843237E-01 -2.6265597E-01 
       239     -8.4000000E+05 -6.2223528E+06  3.8761307E-02  3.1056721E-01 -2.6462714E-01 
       240     -7.6000000E+05 -6.2223528E+06  3.5287981E-02  3.1252328E-01 -2.6643203E-01 
       241     -6.8000000E+05 -6.2223528E+06  3.1750415E-02  3.1429634E-01 -2.6806702E-01 
       242     -6.0000000E+05 -6.2223528E+06  2.8154732E-02  3.1588249E-01 -2.6952884E-01 
       243     -5.2000000E+05 -6.2223528E+06  2.4507263E-02  3.1727824E-01 -2.7081452E-01 
       244     -4.4000000E+05 -6.2223528E+06  2.0814523E-02  3.1848047E-01 -2.7192146E-01 
       245     -3.6000000E+05 -6.2223528E+06  1.7083195E-02  3.1948650E-01 -2.7284740E-01 
       246     -2.8000000E+05 -6.2223528E+06  1.3320098E-02  3.2029406E-01 -2.7359045E-01 
       247     -2.0000000E+05 -6.2223528E+06  9.5321716E-03  3.2090134E-01 -2.7414908E-01 
       248     -1.2000000E+05 -6.2223528E+06  5.7264433E-03  3.2130696E-01 -2.7452213E-01 
       249     -4.0000000E+04 -6.2223528E+06  1.9100077E-03  3.2151000E-01 -2.7470886E-01 
       250      4.0000000E+04 -6.2223528E+06 -1.9100014E-03  3.2151000E-01 -2.7470886E-01 
       251      1.2000000E+05 -6.2223528E+06 -5.7264370E-03  3.2130696E-01 -2.7452214E-01 
       252      2.0000000E+05 -6.2223528E+06 -9.5321654E-03  3.2090134E-01 -2.7414908E-01 
       253      2.8000000E+05 -6.2223528E+06 -1.3320092E-02  3.2029406E-01 -2.7359045E-01 
       254      3.6000000E+05 -6.2223528E+06 -1.7083189E-02  3.1948650E-01 -2.7284740E-01 
       255      4.4000000E+05 -6.2223528E+06 -2.0814518E-02  3.1848047E-01 -2.7192147E-01 
       256      5.2000000E+05 -6.2223528E+06 -2.4507257E-02  3.1727824E-01 -2.7081453E-01 
       257      6.0000000E+05 -6.2223528E+06 -2.8154727E-02  3.1588250E-01 -2.6952884E-01 
       258      6.8000000E+05 -6.2223528E+06 -3.1750410E-02  3.1429635E-01 -2.6806703E-01 
       259      7.6000000E+05 -6.2223528E+06 -3.5287976E-02  3.1252329E-01 -2.6643204E-01 
       260      8.4000000E+05 -6.2223528E+06 -3.8761303E-02  3.1056722E-01 -2.6462715E-01 
       261      9.2000000E+05 -6.2223528E+06 -4.2164497E-02  3.0843238E-01 -2.6265598E-01 
       262      1.0000000E+06 -6.2223528E+06 -4.5491910E-02  3.0612339E-01 -2.6052242E-01 
       263      1.0800000E+06 -6.2223528E+06 -4.8738159E-02  3.0364517E-01 -2.5823067E-01 
       264      1.1600000E+06 -6.2223528E+06 -5.1898139E-02  3.0100294E-01 -2.5578522E-01 
       265      1.2400000E+06 -6.2223528E+06 -5.4967039E-02  2.9820223E-01 -2.5319078E-01 
       266      1.3200000E+06 -6.2223528E+06 -5.7940357E-02  2.9524879E-01 -2.5045232E-01 
       267      1.4000000E+06 -6.2223528E+06 -6.0813904E-02  2.9214864E-01 -2.4757504E-01 
       268      1.4800000E+06 -6.2223528E+06 -6.3583820E-02  2.8890797E-01 -2.4456432E-01 
       269      1.5600000E+06 -6.2223528E+06 -6.6246576E-02  2.8553317E-01 -2.4142573E-01 
       270      1.6400000E+06 -6.2223528E+06 -6.8798983E-02  2.8203080E-01 -2.3816502E-01 
       271      1.7200000E+06 -6.2223528E+06 -7.1238194E-02  2.7840751E-01 -2.3478806E-01 
       272      1.8000000E+06 -6.2223528E+06 -7.3561707E-02  2.7467010E-01 -2.3130085E-01 
       273      1.8800000E+06 -6.2223528E+06 -7.5767367E-02  2.7082542E-01 -2.2770949E-01 
       274      1.9600000E+06 -6.2223528E+06 -7.7853362E-02  2.6688038E-01 -2.2402018E-01 
       275      2.0400000E+06 -6.2223528E+06 -7.9818220E-02  2.6284193E-01 -2.2023914E-01 
       276      2.1200000E+06 -6.2223528E+06 -8.1660812E-02  2.5871701E-01 -2.1637268E-01 
       277      2.2000000E+06 -6.2223528E+06 -8.3380337E-02  2.5451258E-01 -2.1242708E-01 
       278      2.2800000E+06 -6.2223528E+06 -8.4976322E-02  2.5023552E-01 -2.0840867E-01 
       279      2.3600000E+06 -6.2223528E+06 -8.6448616E-02  2.4589268E-01 -2.0432369E-01 
       280      2.4400000E+06 -6.2223528E+06 -8.7797364E-02  2.4149083E-01 -2.0017842E-01 
       281      2.5200000E+06 -6.2223528E+06 -8.9023042E-02  2.3703663E-01 -1.9597895E-01 
       282      2.6000000E+06 -6.2223528E+06 -9.0126335E-02  2.3253665E-01 -1.9173154E-01 
       283      2.6800000E+06 -6.2223528E+06 -9.1108350E-02  2.2799730E-01 -1.8744173E-01 
       284      2.7600000E+06 -6.2223528E+06 -9.1970271E-02  2.2342488E-01 -1.8311650E-01 
       285      2.8400000E+06 -6.2223528E+06 -9.2713317E-02  2.1882549E-01 -1.7875826E-01 
       286      2.9200000E+06 -6.2223528E+06 -9.3341074E-02  2.1420519E-01 -1.7438671E-01 
       287      2.9561929E+06 -6.2223528E+06 -9.3589248E-02  2.1210926E-01 -1.7238430E-01 
       288      3.0088524E+06 -6.2223528E+06 -9.3904152E-02  2.0905539E-01 -1.6947765E-01 
       289      3.0854704E+06 -6.2223528E+06 -9.4274128E-02  2.0460581E-01 -1.6524076E-01 
       290      3.1969472E+06 -6.2223528E+06 -9.4630704E-02  1.9812747E-01 -1.5906822E-01 
       291      3.3591424E+06 -6.2223528E+06 -9.4777194E-02  1.8871870E-01 -1.5009090E-01 
       292      3.5951314E+06 -6.2223528E+06 -9.4252416E-02  1.7514067E-01 -1.3712538E-01 
       293      3.9384879E+06 -6.2223528E+06 -9.2078273E-02  1.5582483E-01 -1.1864053E-01 
       294      4.4380610E+06 -6.2223528E+06 -8.6474354E-02  1.2916769E-01 -9.3160098E-02 
       295      5.1649241E+06 -6.2223528E+06 -7.4697707E-02  9.4549736E-02 -6.0003376E-02 
       296      6.2224873E+06 -6.2223528E+06 -5.4702436E-02  5.4700888E-02 -2.2320350E-02 
       297      7.7612086E+06 -6.2223528E+06 -2.8258286E-02  2.0116942E-02  1.3341633E-02 
       298      1.0000000E+07 -6.2223528E+06  0.0000000E+00  0.0000000E+00  2.8427056E-02 
       301     -1.0000000E+07 -5.1647882E+06  0.0000000E+00  0.0000000E+00  2.6529534E-02 
       302     -7.7611093E+06 -5.1647882E+06  4.8832648E-02  2.9119187E-02  2.6864433E-04 
       303     -6.2223528E+06 -5.1647882E+06  9.4555581E-02  7.4700093E-02 -6.0008966E-02 
       304     -5.1647882E+06 -5.1647882E+06  1.3055006E-01  1.3055006E-01 -1.2703003E-01 
       305     -4.4379397E+06 -5.1647882E+06  1.5369548E-01  1.8182751E-01 -1.8778298E-01 
       306     -3.9383875E+06 -5.1647882E+06  1.6638674E-01  2.2322932E-01 -2.3610768E-01 
       307     -3.5950526E+06 -5.1647882E+06  1.7257240E-01  2.5432776E-01 -2.7207643E-01 
       308     -3.3590836E+06 -5.1647882E+06  1.7523834E-01  2.7677484E-01 -2.9781754E-01 
       309     -3.1969056E+06 -5.1647882E+06  1.7619358E-01  2.9262312E-01 -3.1588946E-01 
       310     -3.0854431E+06 -5.1647882E+06  1.7639260E-01  3.0367912E-01 -3.2844039E-01 
       311     -3.0088365E+06 -5.1647882E+06  1.7630046E-01  3.1134185E-01 -3.3711459E-01 
       312     -2.9561859E+06 -5.1647882E+06  1.7612432E-01  3.1663390E-01 -3.4309396E-01 
       313     -2.9200000E+06 -5.1647882E+06  1.7594401E-01  3.2028153E-01 -3.4722546E-01 
       314     -2.8400000E+06 -5.1647882E+06  1.7538841E-01  3.2836913E-01 -3.5629191E-01 
       315     -2.7600000E+06 -5.1647882E+06  1.7461114E-01  3.3648302E-01 -3.6538211E-01 
       316     -2.6800000E+06 -5.1647882E+06  1.7360049E-01  3.4461217E-01 -3.7445771E-01 
       317     -2.6000000E+06 -5.1647882E+06  1.7235060E-01  3.5274530E-01 -3.8351196E-01 
       318     -2.5200000E+06 -5.1647882E+06  1.7085562E-01  3.6087036E-01 -3.9252956E-01 
       319     -2.4400000E+06 -5.1647882E+06  1.6910972E-01  3.6897470E-01 -4.0149745E-01 
       320     -2.3600000E+06 -5.1647882E+06  1.6710791E-01  3.7704501E-01 -4.1040094E-01 
       321     -2.2800000E+06 -5.1647882E+06  1.6484561E-01  3.8506742E-01 -4.1922533E-01 
       322     -2.2000000E+06 -5.1647882E+06  1.6231894E-01  3.9302747E-01 -4.2795523E-01 
       323     -2.1200000E+06 -5.1647882E+06  1.5952466E-01  4.0091016E-01 -4.3657495E-01 
       324     -2.0400000E+06 -5.1647882E+06  1.5646030E-01  4.0870001E-01 -4.4506841E-01 
       325     -1.9600000E+06 -5.1647882E+06  1.5312414E-01  4.1638109E-01 -4.5341924E-01 
       326     -1.8800000E+06 -5.1647882E+06  1.4951533E-01  4.2393705E-01 -4.6161084E-01 
       327     -1.8000000E+06 -5.1647882E+06  1.4563388E-01  4.3135124E-01 -4.6962640E-01 
       328     -1.7200000E+06 -5.1647882E+06  1.4148073E-01  4.3860671E-01 -4.7744902E-01 
       329     -1.6400000E+06 -5.1647882E+06  1.3705779E-01  4.4568632E-01 -4.8506172E-01 
       330     -1.5600000E+06 -5.1647882E+06  1.3236794E-01  4.5257279E-01 -4.9244757E-01 
       331     -1.4800000E+06 -5.1647882E+06  1.2741513E-01  4.5924882E-01 -4.9958971E-01 
       332     -1.4000000E+06 -5.1647882E+06  1.2220431E-01  4.6569713E-01 -5.0647147E-01 
       333     -1.3200000E+06 -5.1647882E+06  1.1674152E-01  4.7190058E-01 -5.1307640E-01 
       334     -1.2400000E+06 -5.1647882E+06  1.1103387E-01  4.7784224E-01 -5.1938841E-01 
       335     -1.1600000E+06 -5.1647882E+06  1.0508954E-01  4.8350551E-01 -5.2539179E-01 
       336     -1.0800000E+06 -5.1647882E+06  9.8917765E-02  4.8887422E-01 -5.3107133E-01 
       337     -1.0000000E+06 -5.1647882E+06  9.2528849E-02  4.9393269E-01 -5.3641239E-01 
       338     -9.2000000E+05 -5.1647882E+06  8.5934117E-02  4.9866587E-01 -5.4140099E-01 
       339     -8.4000000E+05 -5.1647882E+06  7.9145888E-02  5.0305941E-01 -5.4602386E-01 
       340     -7.6000000E+05 -5.1647882E+06  7.2177437E-02  5.0709977E-01 -5.5026854E-01 
       341     -6.8000000E+05 -5.1647882E+06  6.5042945E-02  5.1077432E-01 -5.5412344E-01 
       342     -6.0000000E+05 -5.1647882E+06  5.7757443E-02  5.1407140E-01 -5.5757794E-01 
       343     -5.2000000E+05 -5.1647882E+06  5.0336742E-02  5.1698043E-01 -5.6062239E-01 
       344     -4.4000000E+05 -5.1647882E+06  4.2797364E-02  5.1949196E-01 -5.6324823E-01 
       345     -3.6000000E+05 -5.1647882E+06  3.5156461E-02  5.2159776E-01 -5.6544803E-01 
       346     -2.8000000E+05 -5.1647882E+06  2.7431729E-02  5.2329090E-01 -5.6721551E-01 
       347     -2.0000000E+05 -5.1647882E+06  1.9641320E-02  5.2456572E-01 -5.6854560E-01 
       348     -1.2000000E+05 -5.1647882E+06  1.1803739E-02  5.2541799E-01 -5.6943446E-01 
       349     -4.0000000E+04 -5.1647882E+06  3.9377508E-03  5.2584484E-01 -5.6987954E-01 
       350      4.0000000E+04 -5.1647882E+06 -3.9377234E-03  5.2584485E-01 -5.6987954E-01 
       351      1.2000000E+05 -5.1647882E+06 -1.1803711E-02  5.2541799E-01 -5.6943447E-01 
       352      2.0000000E+05 -5.1647882E+06 -1.9641293E-02  5.2456573E-01 -5.6854560E-01 
       353      2.8000000E+05 -5.1647882E+06 -2.7431702E-02  5.2329090E-01 -5.6721552E-01 
       354      3.6000000E+05 -5.1647882E+06 -3.5156434E-02  5.2159777E-01 -5.6544804E-01 
       355      4.4000000E+05 -5.1647882E+06 -4.2797337E-02  5.1949196E-01 -5.6324824E-01 
       356      5.2000000E+05 -5.1647882E+06 -5.0336716E-02  5.1698043E-01 -5.6062240E-01 
       357      6.0000000E+05 -5.1647882E+06 -5.7757417E-02  5.1407141E-01 -5.5757795E-01 
       358      6.8000000E+05 -5.1647882E+06 -6.5042920E-02  5.1077433E-01 -5.5412346E-01 
       359      7.6000000E+05 -5.1647882E+06 -7.2177412E-02  5.0709978E-01 -5.5026855E-01 
       360      8.4000000E+05 -5.1647882E+06 -7.9145863E-02  5.0305942E-01 -5.4602388E-01 
       361      9.2000000E+05 -5.1647882E+06 -8.5934093E-02  4.9866588E-01 -5.4140101E-01 
       362      1.0000000E+06 -5.1647882E+06 -9.2528827E-02  4.9393270E-01 -5.3641242E-01 
       363      1.0800000E+06 -5.1647882E+06 -9.8917743E-02  4.8887424E-01 -5.3107135E-01 
       364      1.1600000E+06 -5.1647882E+06 -1.0508952E-01  4.8350553E-01 -5.2539181E-01 
       365      1.2400000E+06 -5.1647882E+06 -1.1103385E-01  4.7784225E-01 -5.1938844E-01 
       366      1.3200000E+06 -5.1647882E+06 -1.1674150E-01  4.7190059E-01 -5.1307643E-01 
       367      1.4000000E+06 -5.1647882E+06 -1.2220429E-01  4.6569715E-01 -5.0647150E-01 
       368      1.4800000E+06 -5.1647882E+06 -1.2741511E-01  4.5924884E-01 -4.9958975E-01 
       369      1.5600000E+06 -5.1647882E+06 -1.3236793E-01  4.5257281E-01 -4.9244761E-01 
       370      1.6400000E+06 -5.1647882E+06 -1.3705777E-01  4.4568634E-01 -4.8506176E-01 
       371      1.7200000E+06 -5.1647882E+06 -1.4148072E-01  4.3860673E-01 -4.7744906E-01 
       372      1.8000000E+06 -5.1647882E+06 -1.4563387E-01  4.3135126E-01 -4.6962644E-01 
       373      1.8800000E+06 -5.1647882E+06 -1.4951532E-01  4.2393707E-01 -4.6161088E-01 
       374      1.9600000E+06 -5.1647882E+06 -1.5312413E-01  4.1638111E-01 -4.5341929E-01 
       375      2.0400000E+06 -5.1647882E+06 -1.5646029E-01  4.0870004E-01 -4.4506845E-01 
       376      2.1200000E+06 -5.1647882E+06 -1.5952466E-01  4.0091018E-01 -4.3657499E-01 
       377      2.2000000E+06 -5.1647882E+06 -1.6231894E-01  3.9302749E-01 -4.2795528E-01 
       378      2.2800000E+06 -5.1647882E+06 -1.6484561E-01  3.8506745E-01 -4.1922538E-01 
       379      2.3600000E+06 -5.1647882E+06 -1.6710791E-01  3.7704504E-01 -4.1040100E-01 
       380      2.4400000E+06 -5.1647882E+06 -1.6910972E-01  3.6897472E-01 -4.0149750E-01 
       381      2.5200000E+06 -5.1647882E+06 -1.7085563E-01  3.6087039E-01 -3.9252961E-01 
       382      2.6000000E+06 -5.1647882E+06 -1.7235061E-01  3.5274533E-01 -3.8351202E-01 
       383      2.6800000E+06 -5.1647882E+06 -1.7360050E-01  3.4461220E-01 -3.7445777E-01 
       384      2.7600000E+06 -5.1647882E+06 -1.7461115E-01  3.3648305E-01 -3.6538217E-01 
       385      2.8400000E+06 -5.1647882E+06 -1.7538843E-01  3.2836916E-01 -3.5629197E-01 
       386      2.9200000E+06 -5.1647882E+06 -1.7594403E-01  3.2028157E-01 -3.4722552E-01 
       387      2.9561929E+06 -5.1647882E+06 -1.7612437E-01  3.1663323E-01 -3.4309323E-01 
       388      3.0088524E+06 -5.1647882E+06 -1.7630052E-01  3.1134029E-01 -3.3711285E-01 
       389      3.0854704E+06 -5.1647882E+06 -1.7639262E-01  3.0367643E-01 -3.2843736E-01 
       390      3.1969472E+06 -5.1647882E+06 -1.7619346E-01  2.9261906E-01 -3.1588487E-01 
       391      3.3591424E+06 -5.1647882E+06 -1.7523789E-01  2.7676919E-01 -2.9781112E-01 
       392      3.5951314E+06 -5.1647882E+06 -1.7257132E-01  2.5432045E-01 -2.7206805E-01 
       393      3.9384879E+06 -5.1647882E+06 -1.6638464E-01  2.2322059E-01 -2.3609757E-01 
       394      4.4380610E+06 -5.1647882E+06 -1.5369207E-01  1.8181814E-01 -1.8777200E-01 
       395      5.1649241E+06 -5.1647882E+06 -1.3054557E-01  1.3054162E-01 -1.2701995E-01 
       396      6.2224873E+06 -5.1647882E+06 -9.4551198E-02  7.4694549E-02 -6.0002092E-02 
       397      7.7612086E+06 -5.1647882E+06 -4.8830128E-02  2.9117476E-02  2.7084665E-04 
       398      1.0000000E+07 -5.1647882E+06  0.0000000E+00  0.0000000E+00  2.6529123E-02 
       401     -1.0000000E+07 -4.4379397E+06  0.0000000E+00  0.0000000E+00  2.4589344E-02 
       402     -7.7611093E+06 -4.4379397E+06  6.5831534E-02  3.3945468E-02 -1.1314388E-02 
       403     -6.2223528E+06 -4.4379397E+06  1.2917384E-01  8.6475962E-02 -9.3165977E-02 
       404     -5.1647882E+06 -4.4379397E+06  1.8182751E-01  1.5369548E-01 -1.8778298E-01 
       405     -4.4379397E+06 -4.4379397E+06  2.1857395E-01  2.1857395E-01 -2.7644837E-01 
       406     -3.9383875E+06 -4.4379397E+06  2.4104256E-01  2.7332132E-01 -3.4931790E-01 
       407     -3.5950526E+06 -4.4379397E+06  2.5368087E-01  3.1590693E-01 -4.0496046E-01 
       408     -3.3590836E+06 -4.4379397E+06  2.6040845E-01  3.4745299E-01 -4.4558656E-01 
       409     -3.1969056E+06 -4.4379397E+06  2.6387336E-01  3.7014376E-01 -4.7451854E-01 
       410     -3.0854431E+06 -4.4379397E+06  2.6562422E-01  3.8618164E-01 -4.9482046E-01 
       411     -3.0088365E+06 -4.4379397E+06  2.6650293E-01  3.9739889E-01 -5.0895239E-01 
       412     -2.9561859E+06 -4.4379397E+06  2.6694422E-01  4.0519470E-01 -5.1874276E-01 
       413     -2.9200000E+06 -4.4379397E+06  2.6716210E-01  4.1059147E-01 -5.2553062E-01 
       414     -2.8400000E+06 -4.4379397E+06  2.6739856E-01  4.2262533E-01 -5.4049988E-01 
       415     -2.7600000E+06 -4.4379397E+06  2.6730215E-01  4.3479385E-01 -5.5560087E-01 
       416     -2.6800000E+06 -4.4379397E+06  2.6684688E-01  4.4708180E-01 -5.7077373E-01 
       417     -2.6000000E+06 -4.4379397E+06  2.6601776E-01  4.5947313E-01 -5.8600698E-01 
       418     -2.5200000E+06 -4.4379397E+06  2.6479918E-01  4.7194997E-01 -6.0127527E-01 
       419     -2.4400000E+06 -4.4379397E+06  2.6317538E-01  4.8449296E-01 -6.1655613E-01 
       420     -2.3600000E+06 -4.4379397E+06  2.6113162E-01  4.9708106E-01 -6.3182379E-01 
       421     -2.2800000E+06 -4.4379397E+06  2.5865367E-01  5.0969164E-01 -6.4705170E-01 
       422     -2.2000000E+06 -4.4379397E+06  2.5572824E-01  5.2230045E-01 -6.6221157E-01 
       423     -2.1200000E+06 -4.4379397E+06  2.5234302E-01  5.3488165E-01 -6.7727380E-01 
       424     -2.0400000E+06 -4.4379397E+06  2.4848692E-01  5.4740789E-01 -6.9220744E-01 
       425     -1.9600000E+06 -4.4379397E+06  2.4415015E-01  5.5985033E-01 -7.0698030E-01 
       426     -1.8800000E+06 -4.4379397E+06  2.3932444E-01  5.7217873E-01 -7.2155902E-01 
       427     -1.8000000E+06 -4.4379397E+06  2.3400318E-01  5.8436157E-01 -7.3590923E-01 
       428     -1.7200000E+06 -4.4379397E+06  2.2818158E-01  5.9636615E-01 -7.4999562E-01 
       429     -1.6400000E+06 -4.4379397E+06  2.2185682E-01  6.0815873E-01 -7.6378215E-01 
       430     -1.5600000E+06 -4.4379397E+06  2.1502818E-01  6.1970470E-01 -7.7723217E-01 
       431     -1.4800000E+06 -4.4379397E+06  2.0769720E-01  6.3096872E-01 -7.9030860E-01 
       432     -1.4000000E+06 -4.4379397E+06  1.9986778E-01  6.4191500E-01 -8.0297415E-01 
       433     -1.3200000E+06 -4.4379397E+06  1.9154630E-01  6.5250741E-01 -8.1519148E-01 
       434     -1.2400000E+06 -4.4379397E+06  1.8274169E-01  6.6270979E-01 -8.2692348E-01 
       435     -1.1600000E+06 -4.4379397E+06  1.7346549E-01  6.7248618E-01 -8.3813345E-01 
       436     -1.0800000E+06 -4.4379397E+06  1.6373192E-01  6.8180103E-01 -8.4878535E-01 
       437     -1.0000000E+06 -4.4379397E+06  1.5355788E-01  6.9061954E-01 -8.5884407E-01 
       438     -9.2000000E+05 -4.4379397E+06  1.4296292E-01  6.9890787E-01 -8.6827566E-01 
       439     -8.4000000E+05 -4.4379397E+06  1.3196924E-01  7.0663344E-01 -8.7704759E-01 
       440     -7.6000000E+05 -4.4379397E+06  1.2060159E-01  7.1376523E-01 -8.8512896E-01 
       441     -6.8000000E+05 -4.4379397E+06  1.0888719E-01  7.2027398E-01 -8.9249082E-01 
       442     -6.0000000E+05 -4.4379397E+06  9.6855610E-02  7.2613255E-01 -8.9910631E-01 
       443     -5.2000000E+05 -4.4379397E+06  8.4538584E-02  7.3131606E-01 -9.0495097E-01 
       444     -4.4000000E+05 -4.4379397E+06  7.1969858E-02  7.3580222E-01 -9.1000289E-01 
       445     -3.6000000E+05 -4.4379397E+06  5.9184969E-02  7.3957149E-01 -9.1424291E-01 
       446     -2.8000000E+05 -4.4379397E+06  4.6221014E-02  7.4260726E-01 -9.1765479E-01 
       447     -2.0000000E+05 -4.4379397E+06  3.3116395E-02  7.4489607E-01 -9.2022539E-01 
       448     -1.2000000E+05 -4.4379397E+06  1.9910550E-02  7.4642767E-01 -9.2194471E-01 
       449     -4.0000000E+04 -4.4379397E+06  6.6436652E-03  7.4719521E-01 -9.2280605E-01 
       450      4.0000000E+04 -4.4379397E+06 -6.6436162E-03  7.4719521E-01 -9.2280605E-01 
       451      1.2000000E+05 -4.4379397E+06 -1.9910501E-02  7.4642768E-01 -9.2194471E-01 
       452      2.0000000E+05 -4.4379397E+06 -3.3116346E-02  7.4489607E-01 -9.2022539E-01 
       453      2.8000000E+05 -4.4379397E+06 -4.6220966E-02  7.4260726E-01 -9.1765480E-01 
       454      3.6000000E+05 -4.4379397E+06 -5.9184921E-02  7.3957149E-01 -9.1424292E-01 
       455      4.4000000E+05 -4.4379397E+06 -7.1969810E-02  7.3580223E-01 -9.1000290E-01 
       456      5.2000000E+05 -4.4379397E+06 -8.4538536E-02  7.3131607E-01 -9.0495099E-01 
       457      6.0000000E+05 -4.4379397E+06 -9.6855564E-02  7.2613255E-01 -8.9910633E-01 
       458      6.8000000E+05 -4.4379397E+06 -1.0888715E-01  7.2027399E-01 -8.9249084E-01 
       459      7.6000000E+05 -4.4379397E+06 -1.2060154E-01  7.1376524E-01 -8.8512899E-01 
       460      8.4000000E+05 -4.4379397E+06 -1.3196919E-01  7.0663346E-01 -8.7704762E-01 
       461      9.2000000E+05 -4.4379397E+06 -1.4296288E-01  6.9890788E-01 -8.6827570E-01 
       462      1.0000000E+06 -4.4379397E+06 -1.5355784E-01  6.9061956E-01 -8.5884410E-01 
       463      1.0800000E+06 -4.4379397E+06 -1.6373188E-01  6.8180105E-01 -8.4878538E-01 
       464      1.1600000E+06 -4.4379397E+06 -1.7346545E-01  6.7248620E-01 -8.3813348E-01 
       465      1.2400000E+06 -4.4379397E+06 -1.8274165E-01  6.6270981E-01 -8.2692352E-01 
       466      1.3200000E+06 -4.4379397E+06 -1.9154627E-01  6.5250743E-01 -8.1519153E-01 
       467      1.4000000E+06 -4.4379397E+06 -1.9986775E-01  6.4191502E-01 -8.0297420E-01 
       468      1.4800000E+06 -4.4379397E+06 -2.0769716E-01  6.3096875E-01 -7.9030865E-01 
       469      1.5600000E+06 -4.4379397E+06 -2.1502814E-01  6.1970472E-01 -7.7723222E-01 
       470      1.6400000E+06 -4.4379397E+06 -2.2185679E-01  6.0815876E-01 -7.6378221E-01 
       471      1.7200000E+06 -4.4379397E+06 -2.2818155E-01  5.9636618E-01 -7.4999568E-01 
       472      1.8000000E+06 -4.4379397E+06 -2.3400315E-01  5.8436160E-01 -7.3590929E-01 
       473      1.8800000E+06 -4.4379397E+06 -2.3932441E-01  5.7217876E-01 -7.2155909E-01 
       474      1.9600000E+06 -4.4379397E+06 -2.4415012E-01  5.5985036E-01 -7.0698037E-01 
       475      2.0400000E+06 -4.4379397E+06 -2.4848690E-01  5.4740792E-01 -6.9220751E-01 
       476      2.1200000E+06 -4.4379397E+06 -2.5234301E-01  5.3488168E-01 -6.7727387E-01 
       477      2.2000000E+06 -4.4379397E+06 -2.5572823E-01  5.2230048E-01 -6.6221164E-01 
       478      2.2800000E+06 -4.4379397E+06 -2.5865366E-01  5.0969168E-01 -6.4705178E-01 
       479      2.3600000E+06 -4.4379397E+06 -2.6113162E-01  4.9708110E-01 -6.3182387E-01 
       480      2.4400000E+06 -4.4379397E+06 -2.6317537E-01  4.8449300E-01 -6.1655621E-01 
       481      2.5200000E+06 -4.4379397E+06 -2.6479918E-01  4.7195001E-01 -6.0127536E-01 
[...]
      9583      2.6800000E+06  6.2224873E+06  6.0612569E-01  1.1125410E+00  5.9353134E-01 
      9584      2.7600000E+06  6.2224873E+06  6.1655252E-01  1.1001743E+00  5.9254648E-01 
      9585      2.8400000E+06  6.2224873E+06  6.2643714E-01  1.0877240E+00  5.9152425E-01 
      9586      2.9200000E+06  6.2224873E+06  6.3578303E-01  1.0752060E+00  5.9048541E-01 
      9587      2.9561929E+06  6.2224873E+06  6.3983676E-01  1.0695249E+00  5.8997897E-01 
      9588      3.0088524E+06  6.2224873E+06  6.4553196E-01  1.0612428E+00  5.8924861E-01 
      9589      3.0854704E+06  6.2224873E+06  6.5340265E-01  1.0491658E+00  5.8816333E-01 
      9590      3.1969472E+06  6.2224873E+06  6.6397682E-01  1.0315602E+00  5.8653238E-01 
      9591      3.3591424E+06  6.2224873E+06  6.7753053E-01  1.0059415E+00  5.8405565E-01 
      9592      3.5951314E+06  6.2224873E+06  6.9342099E-01  9.6884557E-01  5.8022107E-01 
      9593      3.9384879E+06  6.2224873E+06  7.0879534E-01  9.1577151E-01  5.7423005E-01 
      9594      4.4380610E+06  6.2224873E+06  7.1543061E-01  8.4169719E-01  5.6472665E-01 
      9595      5.1649241E+06  6.2224873E+06  6.9724462E-01  7.4165258E-01  5.5066407E-01 
      9596      6.2224873E+06  6.2224873E+06  6.1926225E-01  6.1926225E-01  5.2220448E-01 
      9597      7.7612086E+06  6.2224873E+06  4.0359249E-01  4.3925698E-01  5.0138458E-01 
      9598      1.0000000E+07  6.2224873E+06  0.0000000E+00  0.0000000E+00  4.9497076E-01 
      9601     -1.0000000E+07  7.7612086E+06  0.0000000E+00  0.0000000E+00  4.0544823E-01 
      9602     -7.7611093E+06  7.7612086E+06 -3.5018080E-01  3.5017988E-01  4.3359325E-01 
      9603     -6.2223528E+06  7.7612086E+06 -4.3926266E-01  4.0359959E-01  5.0138896E-01 
      9604     -5.1647882E+06  7.7612086E+06 -4.5982128E-01  4.6358388E-01  5.3032103E-01 
      9605     -4.4379397E+06  7.7612086E+06 -4.5486952E-01  5.0331846E-01  5.5034331E-01 
      9606     -3.9383875E+06  7.7612086E+06 -4.3933504E-01  5.3251658E-01  5.6324792E-01 
      9607     -3.5950526E+06  7.7612086E+06 -4.2294518E-01  5.5268936E-01  5.7156278E-01 
      9608     -3.3590836E+06  7.7612086E+06 -4.0886292E-01  5.6654046E-01  5.7693864E-01 
      9609     -3.1969056E+06  7.7612086E+06 -3.9785254E-01  5.7597628E-01  5.8051476E-01 
      9610     -3.0854431E+06  7.7612086E+06 -3.8964870E-01  5.8240534E-01  5.8288348E-01 
      9611     -3.0088365E+06  7.7612086E+06 -3.8371347E-01  5.8678940E-01  5.8447906E-01 
      9612     -2.9561859E+06  7.7612086E+06 -3.7949338E-01  5.8978399E-01  5.8555631E-01 
      9613     -2.9200000E+06  7.7612086E+06 -3.7652324E-01  5.9183255E-01  5.8629514E-01 
      9614     -2.8400000E+06  7.7612086E+06 -3.6977841E-01  5.9633174E-01  5.8786292E-01 
      9615     -2.7600000E+06  7.7612086E+06 -3.6277769E-01  6.0078555E-01  5.8940500E-01 
      9616     -2.6800000E+06  7.7612086E+06 -3.5552107E-01  6.0518886E-01  5.9090762E-01 
      9617     -2.6000000E+06  7.7612086E+06 -3.4801131E-01  6.0953660E-01  5.9237305E-01 
      9618     -2.5200000E+06  7.7612086E+06 -3.4025137E-01  6.1382360E-01  5.9379990E-01 
      9619     -2.4400000E+06  7.7612086E+06 -3.3224431E-01  6.1804466E-01  5.9518800E-01 
      9620     -2.3600000E+06  7.7612086E+06 -3.2399373E-01  6.2219454E-01  5.9653669E-01 
      9621     -2.2800000E+06  7.7612086E+06 -3.1550346E-01  6.2626802E-01  5.9784555E-01 
      9622     -2.2000000E+06  7.7612086E+06 -3.0677773E-01  6.3025985E-01  5.9911402E-01 
      9623     -2.1200000E+06  7.7612086E+06 -2.9782109E-01  6.3416479E-01  6.0034162E-01 
      9624     -2.0400000E+06  7.7612086E+06 -2.8863845E-01  6.3797767E-01  6.0152785E-01 
      9625     -1.9600000E+06  7.7612086E+06 -2.7923505E-01  6.4169331E-01  6.0267221E-01 
      9626     -1.8800000E+06  7.7612086E+06 -2.6961645E-01  6.4530662E-01  6.0377425E-01 
      9627     -1.8000000E+06  7.7612086E+06 -2.5978858E-01  6.4881256E-01  6.0483352E-01 
      9628     -1.7200000E+06  7.7612086E+06 -2.4975766E-01  6.5220619E-01  6.0584958E-01 
      9629     -1.6400000E+06  7.7612086E+06 -2.3953024E-01  6.5548266E-01  6.0682203E-01 
      9630     -1.5600000E+06  7.7612086E+06 -2.2911318E-01  6.5863724E-01  6.0775049E-01 
      9631     -1.4800000E+06  7.7612086E+06 -2.1851364E-01  6.6166531E-01  6.0863458E-01 
      9632     -1.4000000E+06  7.7612086E+06 -2.0773907E-01  6.6456240E-01  6.0947397E-01 
      9633     -1.3200000E+06  7.7612086E+06 -1.9679721E-01  6.6732418E-01  6.1026833E-01 
      9634     -1.2400000E+06  7.7612086E+06 -1.8569608E-01  6.6994650E-01  6.1101738E-01 
      9635     -1.1600000E+06  7.7612086E+06 -1.7444393E-01  6.7242538E-01  6.1172084E-01 
      9636     -1.0800000E+06  7.7612086E+06 -1.6304928E-01  6.7475703E-01  6.1237846E-01 
      9637     -1.0000000E+06  7.7612086E+06 -1.5152090E-01  6.7693784E-01  6.1299000E-01 
      9638     -9.2000000E+05  7.7612086E+06 -1.3986775E-01  6.7896444E-01  6.1355526E-01 
      9639     -8.4000000E+05  7.7612086E+06 -1.2809902E-01  6.8083366E-01  6.1407405E-01 
      9640     -7.6000000E+05  7.7612086E+06 -1.1622410E-01  6.8254255E-01  6.1454618E-01 
      9641     -6.8000000E+05  7.7612086E+06 -1.0425254E-01  6.8408844E-01  6.1497153E-01 
      9642     -6.0000000E+05  7.7612086E+06 -9.2194060E-02  6.8546885E-01  6.1534993E-01 
      9643     -5.2000000E+05  7.7612086E+06 -8.0058542E-02  6.8668160E-01  6.1568129E-01 
      9644     -4.4000000E+05  7.7612086E+06 -6.7855984E-02  6.8772475E-01  6.1596549E-01 
      9645     -3.6000000E+05  7.7612086E+06 -5.5596505E-02  6.8859661E-01  6.1620246E-01 
      9646     -2.8000000E+05  7.7612086E+06 -4.3290320E-02  6.8929580E-01  6.1639211E-01 
      9647     -2.0000000E+05  7.7612086E+06 -3.0947724E-02  6.8982118E-01  6.1653440E-01 
      9648     -1.2000000E+05  7.7612086E+06 -1.8579075E-02  6.9017190E-01  6.1662929E-01 
      9649     -4.0000000E+04  7.7612086E+06 -6.1947772E-03  6.9034741E-01  6.1667673E-01 
      9650      4.0000000E+04  7.7612086E+06  6.1947404E-03  6.9034741E-01  6.1667673E-01 
      9651      1.2000000E+05  7.7612086E+06  1.8579039E-02  6.9017190E-01  6.1662928E-01 
      9652      2.0000000E+05  7.7612086E+06  3.0947687E-02  6.8982118E-01  6.1653440E-01 
      9653      2.8000000E+05  7.7612086E+06  4.3290283E-02  6.8929580E-01  6.1639211E-01 
      9654      3.6000000E+05  7.7612086E+06  5.5596469E-02  6.8859661E-01  6.1620246E-01 
      9655      4.4000000E+05  7.7612086E+06  6.7855948E-02  6.8772474E-01  6.1596549E-01 
      9656      5.2000000E+05  7.7612086E+06  8.0058505E-02  6.8668160E-01  6.1568129E-01 
      9657      6.0000000E+05  7.7612086E+06  9.2194024E-02  6.8546885E-01  6.1534993E-01 
      9658      6.8000000E+05  7.7612086E+06  1.0425250E-01  6.8408843E-01  6.1497152E-01 
      9659      7.6000000E+05  7.7612086E+06  1.1622406E-01  6.8254255E-01  6.1454618E-01 
      9660      8.4000000E+05  7.7612086E+06  1.2809899E-01  6.8083365E-01  6.1407404E-01 
      9661      9.2000000E+05  7.7612086E+06  1.3986771E-01  6.7896443E-01  6.1355526E-01 
      9662      1.0000000E+06  7.7612086E+06  1.5152086E-01  6.7693784E-01  6.1299000E-01 
      9663      1.0800000E+06  7.7612086E+06  1.6304925E-01  6.7475702E-01  6.1237845E-01 
      9664      1.1600000E+06  7.7612086E+06  1.7444389E-01  6.7242538E-01  6.1172084E-01 
      9665      1.2400000E+06  7.7612086E+06  1.8569604E-01  6.6994650E-01  6.1101738E-01 
      9666      1.3200000E+06  7.7612086E+06  1.9679718E-01  6.6732417E-01  6.1026833E-01 
      9667      1.4000000E+06  7.7612086E+06  2.0773904E-01  6.6456239E-01  6.0947396E-01 
      9668      1.4800000E+06  7.7612086E+06  2.1851360E-01  6.6166530E-01  6.0863457E-01 
      9669      1.5600000E+06  7.7612086E+06  2.2911314E-01  6.5863723E-01  6.0775048E-01 
      9670      1.6400000E+06  7.7612086E+06  2.3953020E-01  6.5548265E-01  6.0682203E-01 
      9671      1.7200000E+06  7.7612086E+06  2.4975762E-01  6.5220618E-01  6.0584958E-01 
      9672      1.8000000E+06  7.7612086E+06  2.5978855E-01  6.4881254E-01  6.0483351E-01 
      9673      1.8800000E+06  7.7612086E+06  2.6961642E-01  6.4530660E-01  6.0377425E-01 
      9674      1.9600000E+06  7.7612086E+06  2.7923501E-01  6.4169329E-01  6.0267220E-01 
      9675      2.0400000E+06  7.7612086E+06  2.8863842E-01  6.3797764E-01  6.0152784E-01 
      9676      2.1200000E+06  7.7612086E+06  2.9782106E-01  6.3416477E-01  6.0034161E-01 
      9677      2.2000000E+06  7.7612086E+06  3.0677770E-01  6.3025982E-01  5.9911401E-01 
      9678      2.2800000E+06  7.7612086E+06  3.1550343E-01  6.2626799E-01  5.9784554E-01 
      9679      2.3600000E+06  7.7612086E+06  3.2399370E-01  6.2219451E-01  5.9653668E-01 
      9680      2.4400000E+06  7.7612086E+06  3.3224428E-01  6.1804462E-01  5.9518799E-01 
      9681      2.5200000E+06  7.7612086E+06  3.4025134E-01  6.1382356E-01  5.9379989E-01 
      9682      2.6000000E+06  7.7612086E+06  3.4801127E-01  6.0953656E-01  5.9237304E-01 
      9683      2.6800000E+06  7.7612086E+06  3.5552103E-01  6.0518882E-01  5.9090761E-01 
      9684      2.7600000E+06  7.7612086E+06  3.6277766E-01  6.0078549E-01  5.8940499E-01 
      9685      2.8400000E+06  7.7612086E+06  3.6977837E-01  5.9633168E-01  5.8786291E-01 
      9686      2.9200000E+06  7.7612086E+06  3.7652320E-01  5.9183249E-01  5.8629513E-01 
      9687      2.9561929E+06  7.7612086E+06  3.7949391E-01  5.8978353E-01  5.8555616E-01 
      9688      3.0088524E+06  7.7612086E+06  3.8371470E-01  5.8678842E-01  5.8447872E-01 
      9689      3.0854704E+06  7.7612086E+06  3.8965074E-01  5.8240370E-01  5.8288290E-01 
      9690      3.1969472E+06  7.7612086E+06  3.9785547E-01  5.7597378E-01  5.8051385E-01 
      9691      3.3591424E+06  7.7612086E+06  4.0886667E-01  5.6653692E-01  5.7693732E-01 
      9692      3.5951314E+06  7.7612086E+06  4.2294944E-01  5.5268460E-01  5.7156093E-01 
      9693      3.9384879E+06  7.7612086E+06  4.3933906E-01  5.3251052E-01  5.6324543E-01 
      9694      4.4380610E+06  7.7612086E+06  4.5487193E-01  5.0331126E-01  5.5034013E-01 
      9695      5.1649241E+06  7.7612086E+06  4.5982043E-01  4.6357611E-01  5.3031726E-01 
      9696      6.2224873E+06  7.7612086E+06  4.3925698E-01  4.0359249E-01  5.0138458E-01 
      9697      7.7612086E+06  7.7612086E+06  3.5017076E-01  3.5017076E-01  4.3359123E-01 
      9698      1.0000000E+07  7.7612086E+06  0.0000000E+00  0.0000000E+00  4.0544691E-01 
      9701     -1.0000000E+07  1.0000000E+07  0.0000000E+00  0.0000000E+00  3.6147009E-01 
      9702     -7.7611093E+06  1.0000000E+07  0.0000000E+00  0.0000000E+00  4.0544931E-01 
      9703     -6.2223528E+06  1.0000000E+07  0.0000000E+00  0.0000000E+00  4.9497573E-01 
      9704     -5.1647882E+06  1.0000000E+07  0.0000000E+00  0.0000000E+00  5.1591281E-01 
      9705     -4.4379397E+06  1.0000000E+07  0.0000000E+00  0.0000000E+00  5.3832052E-01 
      9706     -3.9383875E+06  1.0000000E+07  0.0000000E+00  0.0000000E+00  5.4946696E-01 
      9707     -3.5950526E+06  1.0000000E+07  0.0000000E+00  0.0000000E+00  5.5741953E-01 
      9708     -3.3590836E+06  1.0000000E+07  0.0000000E+00  0.0000000E+00  5.6227719E-01 
      9709     -3.1969056E+06  1.0000000E+07  0.0000000E+00  0.0000000E+00  5.6557569E-01 
      9710     -3.0854431E+06  1.0000000E+07  0.0000000E+00  0.0000000E+00  5.6773046E-01 
      9711     -3.0088365E+06  1.0000000E+07  0.0000000E+00  0.0000000E+00  5.6918800E-01 
      9712     -2.9561859E+06  1.0000000E+07  0.0000000E+00  0.0000000E+00  5.7016754E-01 
      9713     -2.9200000E+06  1.0000000E+07  0.0000000E+00  0.0000000E+00  5.7083704E-01 
      9714     -2.8400000E+06  1.0000000E+07  0.0000000E+00  0.0000000E+00  5.7227935E-01 
      9715     -2.7600000E+06  1.0000000E+07  0.0000000E+00  0.0000000E+00  5.7369083E-01 
      9716     -2.6800000E+06  1.0000000E+07  0.0000000E+00  0.0000000E+00  5.7506633E-01 
      9717     -2.6000000E+06  1.0000000E+07  0.0000000E+00  0.0000000E+00  5.7640736E-01 
      9718     -2.5200000E+06  1.0000000E+07  0.0000000E+00  0.0000000E+00  5.7771291E-01 
      9719     -2.4400000E+06  1.0000000E+07  0.0000000E+00  0.0000000E+00  5.7898287E-01 
      9720     -2.3600000E+06  1.0000000E+07  0.0000000E+00  0.0000000E+00  5.8021679E-01 
      9721     -2.2800000E+06  1.0000000E+07  0.0000000E+00  0.0000000E+00  5.8141431E-01 
      9722     -2.2000000E+06  1.0000000E+07  0.0000000E+00  0.0000000E+00  5.8257504E-01 
      9723     -2.1200000E+06  1.0000000E+07  0.0000000E+00  0.0000000E+00  5.8369857E-01 
      9724     -2.0400000E+06  1.0000000E+07  0.0000000E+00  0.0000000E+00  5.8478452E-01 
      9725     -1.9600000E+06  1.0000000E+07  0.0000000E+00  0.0000000E+00  5.8583248E-01 
      9726     -1.8800000E+06  1.0000000E+07  0.0000000E+00  0.0000000E+00  5.8684208E-01 
      9727     -1.8000000E+06  1.0000000E+07  0.0000000E+00  0.0000000E+00  5.8781291E-01 
      9728     -1.7200000E+06  1.0000000E+07  0.0000000E+00  0.0000000E+00  5.8874461E-01 
      9729     -1.6400000E+06  1.0000000E+07  0.0000000E+00  0.0000000E+00  5.8963680E-01 
      9730     -1.5600000E+06  1.0000000E+07  0.0000000E+00  0.0000000E+00  5.9048911E-01 
      9731     -1.4800000E+06  1.0000000E+07  0.0000000E+00  0.0000000E+00  5.9130119E-01 
      9732     -1.4000000E+06  1.0000000E+07  0.0000000E+00  0.0000000E+00  5.9207270E-01 
      9733     -1.3200000E+06  1.0000000E+07  0.0000000E+00  0.0000000E+00  5.9280331E-01 
      9734     -1.2400000E+06  1.0000000E+07  0.0000000E+00  0.0000000E+00  5.9349270E-01 
      9735     -1.1600000E+06  1.0000000E+07  0.0000000E+00  0.0000000E+00  5.9414056E-01 
      9736     -1.0800000E+06  1.0000000E+07  0.0000000E+00  0.0000000E+00  5.9474661E-01 
      9737     -1.0000000E+06  1.0000000E+07  0.0000000E+00  0.0000000E+00  5.9531057E-01 
      9738     -9.2000000E+05  1.0000000E+07  0.0000000E+00  0.0000000E+00  5.9583219E-01 
      9739     -8.4000000E+05  1.0000000E+07  0.0000000E+00  0.0000000E+00  5.9631121E-01 
      9740     -7.6000000E+05  1.0000000E+07  0.0000000E+00  0.0000000E+00  5.9674742E-01 
      9741     -6.8000000E+05  1.0000000E+07  0.0000000E+00  0.0000000E+00  5.9714062E-01 
      9742     -6.0000000E+05  1.0000000E+07  0.0000000E+00  0.0000000E+00  5.9749060E-01 
      9743     -5.2000000E+05  1.0000000E+07  0.0000000E+00  0.0000000E+00  5.9779722E-01 
      9744     -4.4000000E+05  1.0000000E+07  0.0000000E+00  0.0000000E+00  5.9806031E-01 
      9745     -3.6000000E+05  1.0000000E+07  0.0000000E+00  0.0000000E+00  5.9827975E-01 
      9746     -2.8000000E+05  1.0000000E+07  0.0000000E+00  0.0000000E+00  5.9845543E-01 
      9747     -2.0000000E+05  1.0000000E+07  0.0000000E+00  0.0000000E+00  5.9858727E-01 
      9748     -1.2000000E+05  1.0000000E+07  0.0000000E+00  0.0000000E+00  5.9867519E-01 
      9749     -4.0000000E+04  1.0000000E+07  0.0000000E+00  0.0000000E+00  5.9871917E-01 
      9750      4.0000000E+04  1.0000000E+07  0.0000000E+00  0.0000000E+00  5.9871917E-01 
      9751      1.2000000E+05  1.0000000E+07  0.0000000E+00  0.0000000E+00  5.9867519E-01 
      9752      2.0000000E+05  1.0000000E+07  0.0000000E+00  0.0000000E+00  5.9858726E-01 
      9753      2.8000000E+05  1.0000000E+07  0.0000000E+00  0.0000000E+00  5.9845543E-01 
      9754      3.6000000E+05  1.0000000E+07  0.0000000E+00  0.0000000E+00  5.9827974E-01 
      9755      4.4000000E+05  1.0000000E+07  0.0000000E+00  0.0000000E+00  5.9806030E-01 
      9756      5.2000000E+05  1.0000000E+07  0.0000000E+00  0.0000000E+00  5.9779721E-01 
      9757      6.0000000E+05  1.0000000E+07  0.0000000E+00  0.0000000E+00  5.9749060E-01 
      9758      6.8000000E+05  1.0000000E+07  0.0000000E+00  0.0000000E+00  5.9714061E-01 
      9759      7.6000000E+05  1.0000000E+07  0.0000000E+00  0.0000000E+00  5.9674742E-01 
      9760      8.4000000E+05  1.0000000E+07  0.0000000E+00  0.0000000E+00  5.9631120E-01 
      9761      9.2000000E+05  1.0000000E+07  0.0000000E+00  0.0000000E+00  5.9583218E-01 
      9762      1.0000000E+06  1.0000000E+07  0.0000000E+00  0.0000000E+00  5.9531056E-01 
      9763      1.0800000E+06  1.0000000E+07  0.0000000E+00  0.0000000E+00  5.9474660E-01 
      9764      1.1600000E+06  1.0000000E+07  0.0000000E+00  0.0000000E+00  5.9414055E-01 
      9765      1.2400000E+06  1.0000000E+07  0.0000000E+00  0.0000000E+00  5.9349268E-01 
      9766      1.3200000E+06  1.0000000E+07  0.0000000E+00  0.0000000E+00  5.9280329E-01 
      9767      1.4000000E+06  1.0000000E+07  0.0000000E+00  0.0000000E+00  5.9207269E-01 
      9768      1.4800000E+06  1.0000000E+07  0.0000000E+00  0.0000000E+00  5.9130117E-01 
      9769      1.5600000E+06  1.0000000E+07  0.0000000E+00  0.0000000E+00  5.9048909E-01 
      9770      1.6400000E+06  1.0000000E+07  0.0000000E+00  0.0000000E+00  5.8963678E-01 
      9771      1.7200000E+06  1.0000000E+07  0.0000000E+00  0.0000000E+00  5.8874459E-01 
      9772      1.8000000E+06  1.0000000E+07  0.0000000E+00  0.0000000E+00  5.8781289E-01 
      9773      1.8800000E+06  1.0000000E+07  0.0000000E+00  0.0000000E+00  5.8684206E-01 
      9774      1.9600000E+06  1.0000000E+07  0.0000000E+00  0.0000000E+00  5.8583246E-01 
      9775      2.0400000E+06  1.0000000E+07  0.0000000E+00  0.0000000E+00  5.8478449E-01 
      9776      2.1200000E+06  1.0000000E+07  0.0000000E+00  0.0000000E+00  5.8369854E-01 
      9777      2.2000000E+06  1.0000000E+07  0.0000000E+00  0.0000000E+00  5.8257501E-01 
      9778      2.2800000E+06  1.0000000E+07  0.0000000E+00  0.0000000E+00  5.8141429E-01 
      9779      2.3600000E+06  1.0000000E+07  0.0000000E+00  0.0000000E+00  5.8021676E-01 
      9780      2.4400000E+06  1.0000000E+07  0.0000000E+00  0.0000000E+00  5.7898284E-01 
      9781      2.5200000E+06  1.0000000E+07  0.0000000E+00  0.0000000E+00  5.7771287E-01 
      9782      2.6000000E+06  1.0000000E+07  0.0000000E+00  0.0000000E+00  5.7640732E-01 
      9783      2.6800000E+06  1.0000000E+07  0.0000000E+00  0.0000000E+00  5.7506630E-01 
      9784      2.7600000E+06  1.0000000E+07  0.0000000E+00  0.0000000E+00  5.7369079E-01 
      9785      2.8400000E+06  1.0000000E+07  0.0000000E+00  0.0000000E+00  5.7227931E-01 
      9786      2.9200000E+06  1.0000000E+07  0.0000000E+00  0.0000000E+00  5.7083700E-01 
      9787      2.9561929E+06  1.0000000E+07  0.0000000E+00  0.0000000E+00  5.7016737E-01 
      9788      3.0088524E+06  1.0000000E+07  0.0000000E+00  0.0000000E+00  5.6918766E-01 
      9789      3.0854704E+06  1.0000000E+07  0.0000000E+00  0.0000000E+00  5.6772989E-01 
      9790      3.1969472E+06  1.0000000E+07  0.0000000E+00  0.0000000E+00  5.6557483E-01 
      9791      3.3591424E+06  1.0000000E+07  0.0000000E+00  0.0000000E+00  5.6227594E-01 
      9792      3.5951314E+06  1.0000000E+07  0.0000000E+00  0.0000000E+00  5.5741779E-01 
      9793      3.9384879E+06  1.0000000E+07  0.0000000E+00  0.0000000E+00  5.4946461E-01 
      9794      4.4380610E+06  1.0000000E+07  0.0000000E+00  0.0000000E+00  5.3831740E-01 
      9795      5.1649241E+06  1.0000000E+07  0.0000000E+00  0.0000000E+00  5.1590915E-01 
      9796      6.2224873E+06  1.0000000E+07  0.0000000E+00  0.0000000E+00  4.9497076E-01 
      9797      7.7612086E+06  1.0000000E+07  0.0000000E+00  0.0000000E+00  4.0544691E-01 
      9798      1.0000000E+07  1.0000000E+07  0.0000000E+00  0.0000000E+00  3.6146852E-01 

 MAXIMUM         1.0000E+07  1.0000E+07   4.804       4.804      0.6167    
 AT NODE              1598        9716        4936        3550         149

 MINIMUM        -1.0000E+07 -1.0000E+07  -4.804      -4.804      -138.6    
 AT NODE              1501          16        4963        6250        4950


          THE ANALYSIS HAS BEEN COMPLETED



                              ANALYSIS COMPLETE
                              WITH      1 WARNING MESSAGES ON THE DAT FILE



     JOB TIME SUMMARY
       USER TIME (SEC)      =   1056.5    
       SYSTEM TIME (SEC)    =   57.490    
       TOTAL CPU TIME (SEC) =   1114.0    
       WALLCLOCK TIME (SEC) =       1124
