 Abaqus/Standard 6.14-4                  DATE 21-May-2023 TIME 16:31:34
 SUMMARY OF JOB INFORMATION:
 STEP  INC ATT SEVERE EQUIL TOTAL  TOTAL      STEP       INC OF       DOF    IF
               DISCON ITERS ITERS  TIME/    TIME/LPF    TIME/LPF    MONITOR RIKS
               ITERS               FREQ
   1     1   1     0     1     1  3.00e+06   3.00e+06   3.000e+06 
   1     2   1     0     1     1  6.00e+06   6.00e+06   3.000e+06 
   1     3   1     0     1     1  9.00e+06   9.00e+06   3.000e+06 
   1     4   1     0     1     1  1.50e+07   1.50e+07   6.000e+06 
   1     5   1     0     1     1  2.70e+07   2.70e+07   1.200e+07 
   1     6   1     0     1     1  3.16e+07   3.16e+07   4.558e+06 
   2     1   1U    0     1     1  3.16e+07   0.00       3.000e+09 
   2     1   2     0     1     1  2.12e+09   2.09e+09   2.089e+09 
   2     2   1     0     1     1  4.21e+09   4.18e+09   2.089e+09 
   2     3   1     0     1     1  6.30e+09   6.27e+09   2.089e+09 
   2     4   1     0     1     1  8.39e+09   8.36e+09   2.089e+09 
   2     5   1     0     1     1  1.05e+10   1.04e+10   2.089e+09 
   2     6   1     0     1     1  1.26e+10   1.25e+10   2.089e+09 
   2     7   1     0     1     1  1.47e+10   1.46e+10   2.089e+09 
   2     8   1     0     1     1  1.67e+10   1.67e+10   2.089e+09 
   2     9   1     0     1     1  1.88e+10   1.88e+10   2.089e+09 
   2    10   1     0     1     1  2.09e+10   2.09e+10   2.089e+09 
   2    11   1     0     1     1  2.30e+10   2.30e+10   2.089e+09 
   2    12   1     0     1     1  2.51e+10   2.51e+10   2.089e+09 
   2    13   1     0     1     1  2.72e+10   2.72e+10   2.089e+09 
   2    14   1     0     1     1  2.93e+10   2.93e+10   2.089e+09 
   2    15   1     0     1     1  3.14e+10   3.13e+10   2.089e+09 
   2    16   1     0     1     1  3.16e+10   3.15e+10   1.846e+08 
                          
 THE ANALYSIS HAS COMPLETED SUCCESSFULLY
