 Abaqus/Standard 6.14-4                  DATE 02-Jun-2023 TIME 17:27:51
 SUMMARY OF JOB INFORMATION:
 STEP  INC ATT SEVERE EQUIL TOTAL  TOTAL      STEP       INC OF       DOF    IF
               DISCON ITERS ITERS  TIME/    TIME/LPF    TIME/LPF    MONITOR RIKS
               ITERS               FREQ
   1     1   1     0     1     1  3.00e+06   3.00e+06   3.000e+06 
   1     2   1     0     1     1  6.00e+06   6.00e+06   3.000e+06 
   1     3   1     0     1     1  9.00e+06   9.00e+06   3.000e+06 
   1     4   1     0     1     1  1.50e+07   1.50e+07   6.000e+06 
   1     5   1     0     1     1  2.70e+07   2.70e+07   1.200e+07 
   1     6   1     0     1     1  3.16e+07   3.16e+07   4.558e+06 
   2     1   1U    0     1     1  3.16e+07   0.00       3.000e+09 
   2     1   2     0     1     1  2.12e+09   2.09e+09   2.089e+09 
   2     2   1     0     1     1  4.21e+09   4.18e+09   2.089e+09 
   2     3   1     0     1     1  6.30e+09   6.27e+09   2.089e+09 
   2     4   1     0     1     1  8.39e+09   8.36e+09   2.089e+09 
   2     5   1     0     1     1  1.05e+10   1.04e+10   2.089e+09 
   2     6   1     0     1     1  1.26e+10   1.25e+10   2.089e+09 
   2     7   1     0     1     1  1.47e+10   1.46e+10   2.089e+09 
   2     8   1     0     1     1  1.67e+10   1.67e+10   2.089e+09 
   2     9   1     0     1     1  1.88e+10   1.88e+10   2.089e+09 
   2    10   1     0     2     2  2.30e+10   2.30e+10   4.179e+09 
   2    11   1     0     2     2  2.93e+10   2.93e+10   6.268e+09 
   2    12   1     0     2     2  3.87e+10   3.87e+10   9.402e+09 
   2    13   1     0     2     2  5.28e+10   5.28e+10   1.410e+10 
   2    14   1     0     2     2  7.39e+10   7.39e+10   2.116e+10 
   2    15   1     0     2     2  1.06e+11   1.06e+11   3.173e+10 
   2    16   1     0     2     2  1.53e+11   1.53e+11   4.760e+10 
   2    17   1     0     2     2  2.25e+11   2.25e+11   7.140e+10 
   2    18   1     0     2     2  3.32e+11   3.32e+11   1.071e+11 
   2    19   1     0     2     2  4.92e+11   4.92e+11   1.606e+11 
   2    20   1     0     2     2  7.33e+11   7.33e+11   2.410e+11 
   2    21   1     0     2     2  1.09e+12   1.09e+12   3.615e+11 
   2    22   1     0     2     2  1.64e+12   1.64e+12   5.422e+11 
   2    23   1     0     2     2  2.45e+12   2.45e+12   8.133e+11 
   2    24   1     0     2     2  3.15e+12   3.15e+12   7.023e+11 
                          
 THE ANALYSIS HAS COMPLETED SUCCESSFULLY
